# UPW for MODFLOW-NWT, generated by Flopy.
        53    -1E+03         0         0 
         1         1         1         1         1         1         1
         0         0         0         0         0         0         0
         1         1         1         1         1         1         1
         0         0         0         0         0         0         0
         0         0         0         0         0         0         0
INTERNAL               1  (16E15.6) -1 #hk layer 1                    
   1.000000E+00   5.714850E+01   5.714850E+01   1.000000E+00   1.000000E+00   1.000000E+00   1.000000E+00   1.000000E+00   1.000000E+00   1.000000E+00   1.000000E+00   1.000000E+00   1.000000E+00   1.000000E+00   1.000000E+00   1.000000E+00
   1.000000E+00   5.714850E+01   5.714850E+01   1.000000E+00   1.000000E+00   1.000000E+00   1.000000E+00   1.000000E+00   1.000000E+00   1.000000E+00   1.000000E+00   1.000000E+00   1.000000E+00   1.000000E+00   1.000000E+00   1.000000E+00
   1.000000E+00   1.244960E+00   5.714850E+01   5.714850E+01   1.000000E+00   1.000000E+00   1.000000E+00   1.000000E+00   1.000000E+00   1.000000E+00   1.000000E+00   1.000000E+00   1.000000E+00   1.000000E+00   1.000000E+00   1.000000E+00
   1.000000E+00   1.244960E+00   1.244960E+00   5.714850E+01   1.000000E+00   1.000000E+00   1.000000E+00   1.000000E+00   1.000000E+00   1.000000E+00   1.000000E+00   1.000000E+00   1.000000E+00   1.000000E+00   1.000000E+00   1.000000E+00
   1.000000E+00   5.714850E+01   1.244960E+00   5.714850E+01   5.714850E+01   1.244960E+00   1.000000E+00   1.000000E+00   1.000000E+00   1.000000E+00   1.000000E+00   1.000000E+00   1.000000E+00   1.000000E+00   1.000000E+00   1.000000E+00
   5.714850E+01   1.244960E+00   1.244960E+00   1.244960E+00   5.714850E+01   1.244960E+00   1.000000E+00   1.000000E+00   1.000000E+00   1.000000E+00   1.000000E+00   1.000000E+00   1.000000E+00   1.000000E+00   1.000000E+00   1.000000E+00
   1.244960E+00   1.244960E+00   1.244960E+00   1.244960E+00   1.244960E+00   1.244960E+00   1.244960E+00   5.714850E+01   1.000000E+00   1.000000E+00   1.000000E+00   1.000000E+00   1.000000E+00   1.000000E+00   1.000000E+00   1.000000E+00
   1.233340E+00   1.244960E+00   1.244960E+00   1.244960E+00   1.244960E+00   1.244960E+00   1.244960E+00   1.244960E+00   1.244960E+00   5.714850E+01   1.000000E+00   1.000000E+00   1.000000E+00   1.000000E+00   1.000000E+00   1.000000E+00
   1.000000E+00   1.244960E+00   1.244960E+00   1.244960E+00   1.244960E+00   1.244960E+00   1.244960E+00   1.244960E+00   1.244960E+00   1.244960E+00   1.244960E+00   1.000000E+00   1.000000E+00   1.000000E+00   1.000000E+00   1.000000E+00
   1.000000E+00   1.244960E+00   1.244960E+00   1.244960E+00   1.244960E+00   1.244960E+00   1.244960E+00   1.244960E+00   1.244960E+00   1.244960E+00   1.244960E+00   1.244960E+00   1.244960E+00   1.000000E+00   1.000000E+00   1.000000E+00
   1.000000E+00   1.244960E+00   5.714850E+01   1.244960E+00   1.244960E+00   1.244960E+00   1.244960E+00   1.244960E+00   1.244960E+00   1.244960E+00   1.244960E+00   1.244960E+00   1.244960E+00   1.000000E+00   1.000000E+00   1.000000E+00
   1.000000E+00   1.244960E+00   5.714850E+01   1.244960E+00   1.244960E+00   1.244960E+00   1.244960E+00   1.244960E+00   1.244960E+00   1.244960E+00   1.244960E+00   1.244960E+00   1.244960E+00   1.000000E+00   1.000000E+00   1.000000E+00
   1.000000E+00   1.000000E+00   5.714850E+01   1.244960E+00   1.244960E+00   1.244960E+00   1.244960E+00   1.244960E+00   1.244960E+00   1.244960E+00   1.244960E+00   1.244960E+00   1.244960E+00   1.000000E+00   1.000000E+00   1.000000E+00
   1.000000E+00   1.000000E+00   5.714850E+01   5.714850E+01   1.244960E+00   1.244960E+00   1.244960E+00   1.244960E+00   1.244960E+00   1.244960E+00   1.244960E+00   1.244960E+00   1.244960E+00   1.000000E+00   1.000000E+00   1.000000E+00
   1.000000E+00   1.000000E+00   5.714850E+01   5.714850E+01   5.714850E+01   1.244960E+00   1.244960E+00   1.244960E+00   1.244960E+00   1.244960E+00   1.233340E+00   1.244960E+00   1.244960E+00   1.244960E+00   1.000000E+00   1.000000E+00
   1.000000E+00   1.000000E+00   1.244960E+00   1.244960E+00   5.714850E+01   1.244960E+00   1.244960E+00   1.244960E+00   5.714850E+01   1.244960E+00   5.714850E+01   1.244960E+00   1.244960E+00   1.244960E+00   1.000000E+00   1.000000E+00
   1.000000E+00   1.000000E+00   1.000000E+00   1.233340E+00   1.233340E+00   1.244960E+00   1.244960E+00   1.244960E+00   1.244960E+00   1.233340E+00   1.233340E+00   5.714850E+01   5.714850E+01   5.714850E+01   1.244960E+00   1.000000E+00
   1.000000E+00   1.000000E+00   1.000000E+00   1.233340E+00   1.244960E+00   1.233340E+00   1.244960E+00   1.244960E+00   1.244960E+00   5.714850E+01   1.233340E+00   1.244960E+00   1.244960E+00   1.233340E+00   1.233340E+00   1.000000E+00
   1.000000E+00   1.000000E+00   1.233340E+00   1.233340E+00   1.233340E+00   1.233340E+00   1.244960E+00   1.244960E+00   1.244960E+00   1.233340E+00   5.714850E+01   1.244960E+00   1.244960E+00   1.244960E+00   1.233340E+00   1.000000E+00
   1.000000E+00   1.000000E+00   1.233340E+00   1.244960E+00   1.244960E+00   1.244960E+00   5.714850E+01   1.244960E+00   5.714850E+01   5.714850E+01   5.714850E+01   1.244960E+00   1.244960E+00   3.559030E+01   1.233340E+00   1.000000E+00
   1.000000E+00   1.000000E+00   1.244960E+00   1.233340E+00   1.233340E+00   1.233340E+00   5.714850E+01   1.233340E+00   1.233340E+00   1.233340E+00   1.244960E+00   5.714850E+01   1.244960E+00   1.233340E+00   1.000000E+00   1.000000E+00
   1.000000E+00   1.233340E+00   1.244960E+00   1.233340E+00   1.233340E+00   1.233340E+00   3.075930E+01   1.233340E+00   1.233340E+00   1.233340E+00   1.233340E+00   1.244960E+00   1.233340E+00   1.233340E+00   1.000000E+00   1.000000E+00
   1.000000E+00   1.233340E+00   1.233340E+00   1.233340E+00   1.233340E+00   1.233340E+00   7.030960E+01   3.559030E+01   1.233340E+00   1.233340E+00   5.714850E+01   1.233340E+00   1.000000E+00   1.000000E+00   1.000000E+00   1.000000E+00
   1.000000E+00   1.233340E+00   1.233340E+00   7.030960E+01   1.233340E+00   1.233340E+00   1.233340E+00   5.714850E+01   1.233340E+00   1.233340E+00   1.233340E+00   1.000000E+00   1.000000E+00   1.000000E+00   1.000000E+00   1.000000E+00
   1.000000E+00   1.233340E+00   1.233340E+00   1.233340E+00   1.233340E+00   1.233340E+00   1.000000E+00   1.000000E+00   1.000000E+00   1.233340E+00   1.233340E+00   1.000000E+00   1.000000E+00   1.000000E+00   1.000000E+00   1.000000E+00
   1.000000E+00   1.000000E+00   1.233340E+00   1.000000E+00   1.233340E+00   1.233340E+00   1.000000E+00   1.000000E+00   1.000000E+00   1.000000E+00   1.000000E+00   1.000000E+00   1.000000E+00   1.000000E+00   1.000000E+00   1.000000E+00
   1.000000E+00   1.000000E+00   1.233340E+00   1.000000E+00   1.000000E+00   1.000000E+00   1.000000E+00   1.000000E+00   1.000000E+00   1.000000E+00   1.000000E+00   1.000000E+00   1.000000E+00   1.000000E+00   1.000000E+00   1.000000E+00
   1.000000E+00   1.000000E+00   1.000000E+00   1.000000E+00   1.000000E+00   1.000000E+00   1.000000E+00   1.000000E+00   1.000000E+00   1.000000E+00   1.000000E+00   1.000000E+00   1.000000E+00   1.000000E+00   1.000000E+00   1.000000E+00
INTERNAL               1  (16E15.6) -1 #vka layer 1                   
  -1.000000E+00   9.930000E-02   9.930000E-02  -1.000000E+00  -1.000000E+00  -1.000000E+00  -1.000000E+00  -1.000000E+00  -1.000000E+00  -1.000000E+00  -1.000000E+00  -1.000000E+00  -1.000000E+00  -1.000000E+00  -1.000000E+00  -1.000000E+00
  -1.000000E+00   9.930000E-02   9.930000E-02  -1.000000E+00  -1.000000E+00  -1.000000E+00  -1.000000E+00  -1.000000E+00  -1.000000E+00  -1.000000E+00  -1.000000E+00  -1.000000E+00  -1.000000E+00  -1.000000E+00  -1.000000E+00  -1.000000E+00
  -1.000000E+00   5.180000E-02   9.930000E-02   9.930000E-02  -1.000000E+00  -1.000000E+00  -1.000000E+00  -1.000000E+00  -1.000000E+00  -1.000000E+00  -1.000000E+00  -1.000000E+00  -1.000000E+00  -1.000000E+00  -1.000000E+00  -1.000000E+00
  -1.000000E+00   5.180000E-02   5.180000E-02   9.930000E-02  -1.000000E+00  -1.000000E+00  -1.000000E+00  -1.000000E+00  -1.000000E+00  -1.000000E+00  -1.000000E+00  -1.000000E+00  -1.000000E+00  -1.000000E+00  -1.000000E+00  -1.000000E+00
  -1.000000E+00   9.930000E-02   5.180000E-02   9.930000E-02   9.930000E-02   5.180000E-02  -1.000000E+00  -1.000000E+00  -1.000000E+00  -1.000000E+00  -1.000000E+00  -1.000000E+00  -1.000000E+00  -1.000000E+00  -1.000000E+00  -1.000000E+00
   9.930000E-02   5.180000E-02   5.180000E-02   5.180000E-02   9.930000E-02   5.180000E-02  -1.000000E+00  -1.000000E+00  -1.000000E+00  -1.000000E+00  -1.000000E+00  -1.000000E+00  -1.000000E+00  -1.000000E+00  -1.000000E+00  -1.000000E+00
   5.180000E-02   5.180000E-02   5.180000E-02   5.180000E-02   5.180000E-02   5.180000E-02   5.180000E-02   9.930000E-02  -1.000000E+00  -1.000000E+00  -1.000000E+00  -1.000000E+00  -1.000000E+00  -1.000000E+00  -1.000000E+00  -1.000000E+00
   2.950000E-04   5.180000E-02   5.180000E-02   5.180000E-02   5.180000E-02   5.180000E-02   5.180000E-02   5.180000E-02   5.180000E-02   9.930000E-02  -1.000000E+00  -1.000000E+00  -1.000000E+00  -1.000000E+00  -1.000000E+00  -1.000000E+00
  -1.000000E+00   5.180000E-02   5.180000E-02   5.180000E-02   5.180000E-02   5.180000E-02   5.180000E-02   5.180000E-02   5.180000E-02   5.180000E-02   5.180000E-02  -1.000000E+00  -1.000000E+00  -1.000000E+00  -1.000000E+00  -1.000000E+00
  -1.000000E+00   5.180000E-02   5.180000E-02   5.180000E-02   5.180000E-02   5.180000E-02   5.180000E-02   5.180000E-02   5.180000E-02   5.180000E-02   5.180000E-02   5.180000E-02   5.180000E-02  -1.000000E+00  -1.000000E+00  -1.000000E+00
  -1.000000E+00   5.180000E-02   9.930000E-02   5.180000E-02   5.180000E-02   5.180000E-02   5.180000E-02   5.180000E-02   5.180000E-02   5.180000E-02   5.180000E-02   5.180000E-02   5.180000E-02  -1.000000E+00  -1.000000E+00  -1.000000E+00
  -1.000000E+00   5.180000E-02   9.930000E-02   5.180000E-02   5.180000E-02   5.180000E-02   5.180000E-02   5.180000E-02   5.180000E-02   5.180000E-02   5.180000E-02   5.180000E-02   5.180000E-02  -1.000000E+00  -1.000000E+00  -1.000000E+00
  -1.000000E+00  -1.000000E+00   9.930000E-02   5.180000E-02   5.180000E-02   5.180000E-02   5.180000E-02   5.180000E-02   5.180000E-02   5.180000E-02   5.180000E-02   5.180000E-02   5.180000E-02  -1.000000E+00  -1.000000E+00  -1.000000E+00
  -1.000000E+00  -1.000000E+00   9.930000E-02   9.930000E-02   5.180000E-02   5.180000E-02   5.180000E-02   5.180000E-02   5.180000E-02   5.180000E-02   5.180000E-02   5.180000E-02   5.180000E-02  -1.000000E+00  -1.000000E+00  -1.000000E+00
  -1.000000E+00  -1.000000E+00   9.930000E-02   9.930000E-02   9.930000E-02   5.180000E-02   5.180000E-02   5.180000E-02   5.180000E-02   5.180000E-02   2.950000E-04   5.180000E-02   5.180000E-02   5.180000E-02  -1.000000E+00  -1.000000E+00
  -1.000000E+00  -1.000000E+00   5.180000E-02   5.180000E-02   9.930000E-02   5.180000E-02   5.180000E-02   5.180000E-02   9.930000E-02   5.180000E-02   9.930000E-02   5.180000E-02   5.180000E-02   5.180000E-02  -1.000000E+00  -1.000000E+00
  -1.000000E+00  -1.000000E+00  -1.000000E+00   2.950000E-04   2.950000E-04   5.180000E-02   5.180000E-02   5.180000E-02   5.180000E-02   2.950000E-04   2.950000E-04   9.930000E-02   9.930000E-02   9.930000E-02   5.180000E-02  -1.000000E+00
  -1.000000E+00  -1.000000E+00  -1.000000E+00   2.950000E-04   5.180000E-02   2.950000E-04   5.180000E-02   5.180000E-02   5.180000E-02   9.930000E-02   2.950000E-04   5.180000E-02   5.180000E-02   2.950000E-04   2.950000E-04  -1.000000E+00
  -1.000000E+00  -1.000000E+00   2.950000E-04   2.950000E-04   2.950000E-04   2.950000E-04   5.180000E-02   5.180000E-02   5.180000E-02   2.950000E-04   9.930000E-02   5.180000E-02   5.180000E-02   5.180000E-02   2.950000E-04  -1.000000E+00
  -1.000000E+00  -1.000000E+00   2.950000E-04   5.180000E-02   5.180000E-02   5.180000E-02   9.930000E-02   5.180000E-02   9.930000E-02   9.930000E-02   9.930000E-02   5.180000E-02   5.180000E-02   2.474260E+00   2.950000E-04  -1.000000E+00
  -1.000000E+00  -1.000000E+00   5.180000E-02   2.950000E-04   2.950000E-04   2.950000E-04   9.930000E-02   2.950000E-04   2.950000E-04   2.950000E-04   5.180000E-02   9.930000E-02   5.180000E-02   2.950000E-04  -1.000000E+00  -1.000000E+00
  -1.000000E+00   2.950000E-04   5.180000E-02   2.950000E-04   2.950000E-04   2.950000E-04   1.000000E-01   2.950000E-04   2.950000E-04   2.950000E-04   2.950000E-04   5.180000E-02   2.950000E-04   2.950000E-04  -1.000000E+00  -1.000000E+00
  -1.000000E+00   2.950000E-04   2.950000E-04   2.950000E-04   2.950000E-04   2.950000E-04   2.486610E+00   2.474260E+00   2.950000E-04   2.950000E-04   9.930000E-02   2.950000E-04  -1.000000E+00  -1.000000E+00  -1.000000E+00  -1.000000E+00
  -1.000000E+00   2.950000E-04   2.950000E-04   2.486610E+00   2.950000E-04   2.950000E-04   2.950000E-04   9.930000E-02   2.950000E-04   2.950000E-04   2.950000E-04  -1.000000E+00  -1.000000E+00  -1.000000E+00  -1.000000E+00  -1.000000E+00
  -1.000000E+00   2.950000E-04   2.950000E-04   2.950000E-04   2.950000E-04   2.950000E-04  -1.000000E+00  -1.000000E+00  -1.000000E+00   2.950000E-04   2.950000E-04  -1.000000E+00  -1.000000E+00  -1.000000E+00  -1.000000E+00  -1.000000E+00
  -1.000000E+00  -1.000000E+00   2.950000E-04  -1.000000E+00   2.950000E-04   2.950000E-04  -1.000000E+00  -1.000000E+00  -1.000000E+00  -1.000000E+00  -1.000000E+00  -1.000000E+00  -1.000000E+00  -1.000000E+00  -1.000000E+00  -1.000000E+00
  -1.000000E+00  -1.000000E+00   2.950000E-04  -1.000000E+00  -1.000000E+00  -1.000000E+00  -1.000000E+00  -1.000000E+00  -1.000000E+00  -1.000000E+00  -1.000000E+00  -1.000000E+00  -1.000000E+00  -1.000000E+00  -1.000000E+00  -1.000000E+00
  -1.000000E+00  -1.000000E+00  -1.000000E+00  -1.000000E+00  -1.000000E+00  -1.000000E+00  -1.000000E+00  -1.000000E+00  -1.000000E+00  -1.000000E+00  -1.000000E+00  -1.000000E+00  -1.000000E+00  -1.000000E+00  -1.000000E+00  -1.000000E+00
INTERNAL               1  (16E15.6) -1 #hk layer 2                    
   1.000000E+00   1.244960E+00   1.244960E+00   1.000000E+00   1.000000E+00   1.000000E+00   1.000000E+00   1.000000E+00   1.000000E+00   1.000000E+00   1.000000E+00   1.000000E+00   1.000000E+00   1.000000E+00   1.000000E+00   1.000000E+00
   1.000000E+00   1.244960E+00   1.244960E+00   1.000000E+00   1.000000E+00   1.000000E+00   1.000000E+00   1.000000E+00   1.000000E+00   1.000000E+00   1.000000E+00   1.000000E+00   1.000000E+00   1.000000E+00   1.000000E+00   1.000000E+00
   1.000000E+00   1.244960E+00   1.244960E+00   1.244960E+00   1.000000E+00   1.000000E+00   1.000000E+00   1.000000E+00   1.000000E+00   1.000000E+00   1.000000E+00   1.000000E+00   1.000000E+00   1.000000E+00   1.000000E+00   1.000000E+00
   1.000000E+00   1.244960E+00   1.244960E+00   1.244960E+00   1.000000E+00   1.000000E+00   1.000000E+00   1.000000E+00   1.000000E+00   1.000000E+00   1.000000E+00   1.000000E+00   1.000000E+00   1.000000E+00   1.000000E+00   1.000000E+00
   1.000000E+00   1.244960E+00   1.244960E+00   1.244960E+00   1.244960E+00   1.244960E+00   1.000000E+00   1.000000E+00   1.000000E+00   1.000000E+00   1.000000E+00   1.000000E+00   1.000000E+00   1.000000E+00   1.000000E+00   1.000000E+00
   1.233340E+00   1.244960E+00   1.244960E+00   1.244960E+00   1.244960E+00   1.244960E+00   1.000000E+00   1.000000E+00   1.000000E+00   1.000000E+00   1.000000E+00   1.000000E+00   1.000000E+00   1.000000E+00   1.000000E+00   1.000000E+00
   1.244960E+00   1.244960E+00   1.244960E+00   1.244960E+00   1.244960E+00   1.244960E+00   1.244960E+00   1.244960E+00   1.000000E+00   1.000000E+00   1.000000E+00   1.000000E+00   1.000000E+00   1.000000E+00   1.000000E+00   1.000000E+00
   1.233340E+00   1.244960E+00   1.244960E+00   1.244960E+00   1.244960E+00   1.244960E+00   1.244960E+00   1.244960E+00   1.244960E+00   1.244960E+00   1.000000E+00   1.000000E+00   1.000000E+00   1.000000E+00   1.000000E+00   1.000000E+00
   1.000000E+00   1.244960E+00   1.244960E+00   1.244960E+00   1.244960E+00   1.244960E+00   1.244960E+00   1.244960E+00   1.244960E+00   1.244960E+00   1.244960E+00   1.000000E+00   1.000000E+00   1.000000E+00   1.000000E+00   1.000000E+00
   1.000000E+00   1.244960E+00   1.244960E+00   1.244960E+00   1.244960E+00   1.244960E+00   1.244960E+00   1.244960E+00   1.244960E+00   1.244960E+00   1.244960E+00   1.244960E+00   1.244960E+00   1.000000E+00   1.000000E+00   1.000000E+00
   1.000000E+00   1.244960E+00   1.244960E+00   1.244960E+00   1.244960E+00   1.244960E+00   1.244960E+00   1.244960E+00   1.244960E+00   1.244960E+00   1.244960E+00   1.244960E+00   1.244960E+00   1.000000E+00   1.000000E+00   1.000000E+00
   1.000000E+00   1.244960E+00   1.244960E+00   1.244960E+00   1.244960E+00   1.244960E+00   1.244960E+00   1.244960E+00   1.244960E+00   1.244960E+00   1.244960E+00   1.244960E+00   1.244960E+00   1.000000E+00   1.000000E+00   1.000000E+00
   1.000000E+00   1.000000E+00   1.244960E+00   1.244960E+00   1.244960E+00   1.244960E+00   1.244960E+00   1.244960E+00   1.244960E+00   1.244960E+00   1.244960E+00   1.244960E+00   1.244960E+00   1.000000E+00   1.000000E+00   1.000000E+00
   1.000000E+00   1.000000E+00   1.244960E+00   1.244960E+00   1.244960E+00   1.244960E+00   1.244960E+00   1.244960E+00   1.244960E+00   1.244960E+00   1.244960E+00   1.244960E+00   1.244960E+00   1.000000E+00   1.000000E+00   1.000000E+00
   1.000000E+00   1.000000E+00   1.244960E+00   1.244960E+00   1.244960E+00   1.244960E+00   1.244960E+00   1.244960E+00   1.244960E+00   1.244960E+00   1.233340E+00   1.244960E+00   1.244960E+00   1.244960E+00   1.000000E+00   1.000000E+00
   1.000000E+00   1.000000E+00   1.244960E+00   1.244960E+00   1.244960E+00   1.244960E+00   1.244960E+00   1.244960E+00   1.244960E+00   1.244960E+00   1.244960E+00   1.244960E+00   1.244960E+00   1.244960E+00   1.000000E+00   1.000000E+00
   1.000000E+00   1.000000E+00   1.000000E+00   1.233340E+00   1.233340E+00   1.244960E+00   1.244960E+00   1.244960E+00   1.244960E+00   1.233340E+00   1.233340E+00   1.244960E+00   1.244960E+00   1.244960E+00   1.244960E+00   1.000000E+00
   1.000000E+00   1.000000E+00   1.000000E+00   1.233340E+00   1.244960E+00   1.233340E+00   1.244960E+00   1.244960E+00   1.244960E+00   1.244960E+00   1.233340E+00   1.244960E+00   1.244960E+00   1.233340E+00   1.233340E+00   1.000000E+00
   1.000000E+00   1.000000E+00   1.233340E+00   1.233340E+00   1.233340E+00   1.233340E+00   1.244960E+00   1.244960E+00   1.244960E+00   1.233340E+00   1.244960E+00   1.244960E+00   1.244960E+00   1.244960E+00   1.233340E+00   1.000000E+00
   1.000000E+00   1.000000E+00   1.233340E+00   1.244960E+00   1.244960E+00   1.244960E+00   3.075930E+01   1.244960E+00   1.244960E+00   1.244960E+00   1.233340E+00   1.244960E+00   1.244960E+00   3.559030E+01   1.233340E+00   1.000000E+00
   1.000000E+00   1.000000E+00   1.244960E+00   1.233340E+00   1.233340E+00   1.233340E+00   3.075930E+01   1.233340E+00   1.233340E+00   1.233340E+00   1.244960E+00   1.244960E+00   1.244960E+00   1.233340E+00   1.000000E+00   1.000000E+00
   1.000000E+00   1.233340E+00   1.244960E+00   1.233340E+00   1.233340E+00   1.233340E+00   3.075930E+01   1.233340E+00   1.233340E+00   1.233340E+00   1.233340E+00   1.244960E+00   1.233340E+00   1.233340E+00   1.000000E+00   1.000000E+00
   1.000000E+00   1.233340E+00   1.233340E+00   1.233340E+00   1.233340E+00   1.233340E+00   7.030960E+01   3.559030E+01   1.233340E+00   1.233340E+00   1.233340E+00   1.233340E+00   1.000000E+00   1.000000E+00   1.000000E+00   1.000000E+00
   1.000000E+00   1.233340E+00   1.233340E+00   7.030960E+01   1.233340E+00   1.233340E+00   1.233340E+00   1.244960E+00   1.233340E+00   1.233340E+00   1.233340E+00   1.000000E+00   1.000000E+00   1.000000E+00   1.000000E+00   1.000000E+00
   1.000000E+00   1.233340E+00   1.233340E+00   1.233340E+00   1.233340E+00   1.233340E+00   1.000000E+00   1.000000E+00   1.000000E+00   1.233340E+00   1.233340E+00   1.000000E+00   1.000000E+00   1.000000E+00   1.000000E+00   1.000000E+00
   1.000000E+00   1.000000E+00   1.233340E+00   1.000000E+00   1.233340E+00   1.233340E+00   1.000000E+00   1.000000E+00   1.000000E+00   1.000000E+00   1.000000E+00   1.000000E+00   1.000000E+00   1.000000E+00   1.000000E+00   1.000000E+00
   1.000000E+00   1.000000E+00   1.233340E+00   1.000000E+00   1.000000E+00   1.000000E+00   1.000000E+00   1.000000E+00   1.000000E+00   1.000000E+00   1.000000E+00   1.000000E+00   1.000000E+00   1.000000E+00   1.000000E+00   1.000000E+00
   1.000000E+00   1.000000E+00   1.000000E+00   1.000000E+00   1.000000E+00   1.000000E+00   1.000000E+00   1.000000E+00   1.000000E+00   1.000000E+00   1.000000E+00   1.000000E+00   1.000000E+00   1.000000E+00   1.000000E+00   1.000000E+00
INTERNAL               1  (16E15.6) -1 #vka layer 2                   
  -1.000000E+00   5.180000E-02   5.180000E-02  -1.000000E+00  -1.000000E+00  -1.000000E+00  -1.000000E+00  -1.000000E+00  -1.000000E+00  -1.000000E+00  -1.000000E+00  -1.000000E+00  -1.000000E+00  -1.000000E+00  -1.000000E+00  -1.000000E+00
  -1.000000E+00   5.180000E-02   5.180000E-02  -1.000000E+00  -1.000000E+00  -1.000000E+00  -1.000000E+00  -1.000000E+00  -1.000000E+00  -1.000000E+00  -1.000000E+00  -1.000000E+00  -1.000000E+00  -1.000000E+00  -1.000000E+00  -1.000000E+00
  -1.000000E+00   5.180000E-02   5.180000E-02   5.180000E-02  -1.000000E+00  -1.000000E+00  -1.000000E+00  -1.000000E+00  -1.000000E+00  -1.000000E+00  -1.000000E+00  -1.000000E+00  -1.000000E+00  -1.000000E+00  -1.000000E+00  -1.000000E+00
  -1.000000E+00   5.180000E-02   5.180000E-02   5.180000E-02  -1.000000E+00  -1.000000E+00  -1.000000E+00  -1.000000E+00  -1.000000E+00  -1.000000E+00  -1.000000E+00  -1.000000E+00  -1.000000E+00  -1.000000E+00  -1.000000E+00  -1.000000E+00
  -1.000000E+00   5.180000E-02   5.180000E-02   5.180000E-02   5.180000E-02   5.180000E-02  -1.000000E+00  -1.000000E+00  -1.000000E+00  -1.000000E+00  -1.000000E+00  -1.000000E+00  -1.000000E+00  -1.000000E+00  -1.000000E+00  -1.000000E+00
   2.950000E-04   5.180000E-02   5.180000E-02   5.180000E-02   5.180000E-02   5.180000E-02  -1.000000E+00  -1.000000E+00  -1.000000E+00  -1.000000E+00  -1.000000E+00  -1.000000E+00  -1.000000E+00  -1.000000E+00  -1.000000E+00  -1.000000E+00
   5.180000E-02   5.180000E-02   5.180000E-02   5.180000E-02   5.180000E-02   5.180000E-02   5.180000E-02   5.180000E-02  -1.000000E+00  -1.000000E+00  -1.000000E+00  -1.000000E+00  -1.000000E+00  -1.000000E+00  -1.000000E+00  -1.000000E+00
   2.950000E-04   5.180000E-02   5.180000E-02   5.180000E-02   5.180000E-02   5.180000E-02   5.180000E-02   5.180000E-02   5.180000E-02   5.180000E-02  -1.000000E+00  -1.000000E+00  -1.000000E+00  -1.000000E+00  -1.000000E+00  -1.000000E+00
  -1.000000E+00   5.180000E-02   5.180000E-02   5.180000E-02   5.180000E-02   5.180000E-02   5.180000E-02   5.180000E-02   5.180000E-02   5.180000E-02   5.180000E-02  -1.000000E+00  -1.000000E+00  -1.000000E+00  -1.000000E+00  -1.000000E+00
  -1.000000E+00   5.180000E-02   5.180000E-02   5.180000E-02   5.180000E-02   5.180000E-02   5.180000E-02   5.180000E-02   5.180000E-02   5.180000E-02   5.180000E-02   5.180000E-02   5.180000E-02  -1.000000E+00  -1.000000E+00  -1.000000E+00
  -1.000000E+00   5.180000E-02   5.180000E-02   5.180000E-02   5.180000E-02   5.180000E-02   5.180000E-02   5.180000E-02   5.180000E-02   5.180000E-02   5.180000E-02   5.180000E-02   5.180000E-02  -1.000000E+00  -1.000000E+00  -1.000000E+00
  -1.000000E+00   5.180000E-02   5.180000E-02   5.180000E-02   5.180000E-02   5.180000E-02   5.180000E-02   5.180000E-02   5.180000E-02   5.180000E-02   5.180000E-02   5.180000E-02   5.180000E-02  -1.000000E+00  -1.000000E+00  -1.000000E+00
  -1.000000E+00  -1.000000E+00   5.180000E-02   5.180000E-02   5.180000E-02   5.180000E-02   5.180000E-02   5.180000E-02   5.180000E-02   5.180000E-02   5.180000E-02   5.180000E-02   5.180000E-02  -1.000000E+00  -1.000000E+00  -1.000000E+00
  -1.000000E+00  -1.000000E+00   5.180000E-02   5.180000E-02   5.180000E-02   5.180000E-02   5.180000E-02   5.180000E-02   5.180000E-02   5.180000E-02   5.180000E-02   5.180000E-02   5.180000E-02  -1.000000E+00  -1.000000E+00  -1.000000E+00
  -1.000000E+00  -1.000000E+00   5.180000E-02   5.180000E-02   5.180000E-02   5.180000E-02   5.180000E-02   5.180000E-02   5.180000E-02   5.180000E-02   2.950000E-04   5.180000E-02   5.180000E-02   5.180000E-02  -1.000000E+00  -1.000000E+00
  -1.000000E+00  -1.000000E+00   5.180000E-02   5.180000E-02   5.180000E-02   5.180000E-02   5.180000E-02   5.180000E-02   5.180000E-02   5.180000E-02   5.180000E-02   5.180000E-02   5.180000E-02   5.180000E-02  -1.000000E+00  -1.000000E+00
  -1.000000E+00  -1.000000E+00  -1.000000E+00   2.950000E-04   2.950000E-04   5.180000E-02   5.180000E-02   5.180000E-02   5.180000E-02   2.950000E-04   2.950000E-04   5.180000E-02   5.180000E-02   5.180000E-02   5.180000E-02  -1.000000E+00
  -1.000000E+00  -1.000000E+00  -1.000000E+00   2.950000E-04   5.180000E-02   2.950000E-04   5.180000E-02   5.180000E-02   5.180000E-02   5.180000E-02   2.950000E-04   5.180000E-02   5.180000E-02   2.950000E-04   2.950000E-04  -1.000000E+00
  -1.000000E+00  -1.000000E+00   2.950000E-04   2.950000E-04   2.950000E-04   2.950000E-04   5.180000E-02   5.180000E-02   5.180000E-02   2.950000E-04   5.180000E-02   5.180000E-02   5.180000E-02   5.180000E-02   2.950000E-04  -1.000000E+00
  -1.000000E+00  -1.000000E+00   2.950000E-04   5.180000E-02   5.180000E-02   5.180000E-02   1.000000E-01   5.180000E-02   5.180000E-02   5.180000E-02   2.950000E-04   5.180000E-02   5.180000E-02   2.474260E+00   2.950000E-04  -1.000000E+00
  -1.000000E+00  -1.000000E+00   5.180000E-02   2.950000E-04   2.950000E-04   2.950000E-04   1.000000E-01   2.950000E-04   2.950000E-04   2.950000E-04   5.180000E-02   5.180000E-02   5.180000E-02   2.950000E-04  -1.000000E+00  -1.000000E+00
  -1.000000E+00   2.950000E-04   5.180000E-02   2.950000E-04   2.950000E-04   2.950000E-04   1.000000E-01   2.950000E-04   2.950000E-04   2.950000E-04   2.950000E-04   5.180000E-02   2.950000E-04   2.950000E-04  -1.000000E+00  -1.000000E+00
  -1.000000E+00   2.950000E-04   2.950000E-04   2.950000E-04   2.950000E-04   2.950000E-04   2.486610E+00   2.474260E+00   2.950000E-04   2.950000E-04   2.950000E-04   2.950000E-04  -1.000000E+00  -1.000000E+00  -1.000000E+00  -1.000000E+00
  -1.000000E+00   2.950000E-04   2.950000E-04   2.486610E+00   2.950000E-04   2.950000E-04   2.950000E-04   5.180000E-02   2.950000E-04   2.950000E-04   2.950000E-04  -1.000000E+00  -1.000000E+00  -1.000000E+00  -1.000000E+00  -1.000000E+00
  -1.000000E+00   2.950000E-04   2.950000E-04   2.950000E-04   2.950000E-04   2.950000E-04  -1.000000E+00  -1.000000E+00  -1.000000E+00   2.950000E-04   2.950000E-04  -1.000000E+00  -1.000000E+00  -1.000000E+00  -1.000000E+00  -1.000000E+00
  -1.000000E+00  -1.000000E+00   2.950000E-04  -1.000000E+00   2.950000E-04   2.950000E-04  -1.000000E+00  -1.000000E+00  -1.000000E+00  -1.000000E+00  -1.000000E+00  -1.000000E+00  -1.000000E+00  -1.000000E+00  -1.000000E+00  -1.000000E+00
  -1.000000E+00  -1.000000E+00   2.950000E-04  -1.000000E+00  -1.000000E+00  -1.000000E+00  -1.000000E+00  -1.000000E+00  -1.000000E+00  -1.000000E+00  -1.000000E+00  -1.000000E+00  -1.000000E+00  -1.000000E+00  -1.000000E+00  -1.000000E+00
  -1.000000E+00  -1.000000E+00  -1.000000E+00  -1.000000E+00  -1.000000E+00  -1.000000E+00  -1.000000E+00  -1.000000E+00  -1.000000E+00  -1.000000E+00  -1.000000E+00  -1.000000E+00  -1.000000E+00  -1.000000E+00  -1.000000E+00  -1.000000E+00
INTERNAL               1  (16E15.6) -1 #hk layer 3                    
   1.000000E+00   1.244960E+00   1.244960E+00   1.000000E+00   1.000000E+00   1.000000E+00   1.000000E+00   1.000000E+00   1.000000E+00   1.000000E+00   1.000000E+00   1.000000E+00   1.000000E+00   1.000000E+00   1.000000E+00   1.000000E+00
   1.000000E+00   1.244960E+00   1.244960E+00   1.000000E+00   1.000000E+00   1.000000E+00   1.000000E+00   1.000000E+00   1.000000E+00   1.000000E+00   1.000000E+00   1.000000E+00   1.000000E+00   1.000000E+00   1.000000E+00   1.000000E+00
   1.000000E+00   1.244960E+00   1.244960E+00   1.244960E+00   1.000000E+00   1.000000E+00   1.000000E+00   1.000000E+00   1.000000E+00   1.000000E+00   1.000000E+00   1.000000E+00   1.000000E+00   1.000000E+00   1.000000E+00   1.000000E+00
   1.000000E+00   1.244960E+00   1.244960E+00   1.244960E+00   1.000000E+00   1.000000E+00   1.000000E+00   1.000000E+00   1.000000E+00   1.000000E+00   1.000000E+00   1.000000E+00   1.000000E+00   1.000000E+00   1.000000E+00   1.000000E+00
   1.000000E+00   1.244960E+00   1.244960E+00   1.244960E+00   1.244960E+00   1.244960E+00   1.000000E+00   1.000000E+00   1.000000E+00   1.000000E+00   1.000000E+00   1.000000E+00   1.000000E+00   1.000000E+00   1.000000E+00   1.000000E+00
   1.233340E+00   1.244960E+00   1.244960E+00   1.244960E+00   1.244960E+00   1.244960E+00   1.000000E+00   1.000000E+00   1.000000E+00   1.000000E+00   1.000000E+00   1.000000E+00   1.000000E+00   1.000000E+00   1.000000E+00   1.000000E+00
   1.244960E+00   1.244960E+00   1.244960E+00   1.244960E+00   1.244960E+00   1.244960E+00   1.244960E+00   1.244960E+00   1.000000E+00   1.000000E+00   1.000000E+00   1.000000E+00   1.000000E+00   1.000000E+00   1.000000E+00   1.000000E+00
   1.233340E+00   1.244960E+00   1.244960E+00   1.244960E+00   1.244960E+00   1.244960E+00   1.244960E+00   1.244960E+00   1.244960E+00   1.244960E+00   1.000000E+00   1.000000E+00   1.000000E+00   1.000000E+00   1.000000E+00   1.000000E+00
   1.000000E+00   1.244960E+00   1.244960E+00   1.244960E+00   1.244960E+00   1.244960E+00   1.244960E+00   1.244960E+00   1.244960E+00   1.244960E+00   1.244960E+00   1.000000E+00   1.000000E+00   1.000000E+00   1.000000E+00   1.000000E+00