# RIV for MODFLOW, generated by Flopy.
        41        53
        41         0 # stress period 0
         1        24         6   1.6866029E+02   2.2120503E+02   1.6856152E+02
         1        19         7   1.4219029E+02   2.0412183E+02   1.4209152E+02
         1        20         7   1.4991655E+02   4.6275576E+03   1.4981778E+02
         1        21         7   1.5474025E+02   4.6040762E+03   1.5464148E+02
         1        22         7   1.7009715E+02   3.9427939E+03   1.6999838E+02
         1        23         7   1.8002812E+02   4.1539238E+03   1.7992935E+02
         1        24         7   1.8457954E+02   4.7391074E+03   1.8448077E+02
         1        16         8   1.2414274E+02   2.0894693E+02   1.2404397E+02
         1        17         8   1.2996811E+02   6.4136787E+03   1.2986934E+02
         1        18         8   1.3104327E+02   7.1446421E+03   1.3094450E+02
         1        19         8   1.3383470E+02   5.3358394E+03   1.3373593E+02
         1        20         8   1.4947289E+02   1.6349585E+02   1.4937411E+02
         1        15         9   1.2209042E+02   4.2185122E+03   1.2199165E+02
         1        16         9   1.2541354E+02   7.1899307E+03   1.2531477E+02
         1        17         9   1.3092055E+02   7.7994220E+02   1.3082178E+02
         1        18         9   1.4137361E+02   3.8422256E+02   1.4127484E+02
         1         8        10   9.2493874E+01   1.2091539E+03   9.2395103E+01
         1         9        10   9.8878059E+01   5.0703462E+03   9.8779289E+01
         1        10        10   9.8579994E+01   2.0339407E+03   9.8481224E+01
         1        11        10   1.0246249E+02   1.5637137E+03   1.0236372E+02
         1        12        10   1.0622608E+02   6.6795928E+03   1.0612731E+02
         1        13        10   1.1184819E+02   6.0710908E+03   1.1174942E+02
         1        14        10   1.1590919E+02   4.8869541E+03   1.1581042E+02
         1        15        10   1.2655888E+02   2.4148145E+03   1.2646011E+02
         1         9        11   9.6229248E+01   2.0668271E+03   9.6130478E+01
         1        10        11   9.9019524E+01   4.4266167E+03   9.8920753E+01
         1        11        11   1.0215539E+02   5.2631753E+03   1.0205662E+02
         1         1         2   7.9101692E+01   2.0084541E+01   7.9001595E+01
         1         1         3   8.0974457E+01   2.4904985E+03   8.0874359E+01
         1         2         3   8.0961960E+01   3.0987921E+02   8.0861862E+01
         1         3         4   8.3231308E+01   2.2555935E+03   8.3131210E+01
         1         4         4   8.3942810E+01   1.0245154E+03   8.3842712E+01
         1         5         5   8.4297211E+01   9.0167731E+02   8.4197113E+01
         1         5         6   8.3648521E+01   2.5891284E+03   8.3548424E+01
         1         6         6   8.7615761E+01   4.9132379E+02   8.7515663E+01
         1         7         7   9.1051140E+01   6.4398140E+01   9.0951042E+01
         1         7         8   9.1150215E+01   3.0727405E+03   9.1050117E+01
         1         8         8   9.4244530E+01   1.6454890E+02   9.4144432E+01
         1         8         9   9.5656219E+01   7.2331244E+02   9.5556122E+01
         1         8        10   9.2493874E+01   2.2268958E+03   9.2393776E+01
         1         9        11   9.6229248E+01   5.8016168E+02   9.6129150E+01
