# Well file for MODFLOW, generated by Flopy.
        26        53
        26         0 # stress period 0
         1         8         4   0.0000000E+00
         2         8         4   0.0000000E+00
         3         8         4   0.0000000E+00
         2         5         5   0.0000000E+00
         2         5         5   0.0000000E+00
         5        14         8   0.0000000E+00
         3        17         8   0.0000000E+00
         7        17         8   0.0000000E+00
         7        18         8   0.0000000E+00
         7        13         9   0.0000000E+00
         7        14         9   0.0000000E+00
         6        14         9   0.0000000E+00
         7        14         9   0.0000000E+00
         7        14         9   0.0000000E+00
         6        15         9   0.0000000E+00
         1        10        10   0.0000000E+00
         4        10        10   0.0000000E+00
         3        12        10   0.0000000E+00
         3         9        11   0.0000000E+00
         4        11        12   0.0000000E+00
         3        17        12   0.0000000E+00
         4        17        13   0.0000000E+00
         1        15        14   0.0000000E+00
         7        15        14   0.0000000E+00
         3        16        14   0.0000000E+00
         7        16        14   0.0000000E+00
