# Discretization file for MODFLOW, generated by Flopy.
         7        28        16         1         4         2
  0  0  0  0  0  0  0
CONSTANT    5.000000E+03                           #delr                          
CONSTANT    5.000000E+03                           #delc                          
INTERNAL               1  (16E15.6) -1 #model_top                     
   1.484265E+02   7.911169E+01   8.098446E+01   1.484265E+02   1.484265E+02   1.484265E+02   1.484265E+02   1.484265E+02   1.484265E+02   1.484265E+02   1.484265E+02   1.484265E+02   1.484265E+02   1.484265E+02   1.484265E+02   1.484265E+02
   1.484265E+02   8.026678E+01   8.097196E+01   1.484265E+02   1.484265E+02   1.484265E+02   1.484265E+02   1.484265E+02   1.484265E+02   1.484265E+02   1.484265E+02   1.484265E+02   1.484265E+02   1.484265E+02   1.484265E+02   1.484265E+02
   1.484265E+02   8.155634E+01   8.198243E+01   8.324131E+01   1.484265E+02   1.484265E+02   1.484265E+02   1.484265E+02   1.484265E+02   1.484265E+02   1.484265E+02   1.484265E+02   1.484265E+02   1.484265E+02   1.484265E+02   1.484265E+02
   1.484265E+02   8.240819E+01   8.327042E+01   8.395281E+01   1.484265E+02   1.484265E+02   1.484265E+02   1.484265E+02   1.484265E+02   1.484265E+02   1.484265E+02   1.484265E+02   1.484265E+02   1.484265E+02   1.484265E+02   1.484265E+02
   1.484265E+02   8.213000E+01   8.588290E+01   8.496973E+01   8.430721E+01   8.365852E+01   1.484265E+02   1.484265E+02   1.484265E+02   1.484265E+02   1.484265E+02   1.484265E+02   1.484265E+02   1.484265E+02   1.484265E+02   1.484265E+02
   1.045832E+02   8.251009E+01   8.457584E+01   8.557323E+01   8.790475E+01   8.762576E+01   1.484265E+02   1.484265E+02   1.484265E+02   1.484265E+02   1.484265E+02   1.484265E+02   1.484265E+02   1.484265E+02   1.484265E+02   1.484265E+02
   9.613013E+01   8.686338E+01   8.645561E+01   8.745921E+01   8.885980E+01   8.842867E+01   9.106114E+01   9.116022E+01   1.484265E+02   1.484265E+02   1.484265E+02   1.484265E+02   1.484265E+02   1.484265E+02   1.484265E+02   1.484265E+02
   9.980193E+01   8.834604E+01   8.889630E+01   9.063193E+01   9.089177E+01   9.107626E+01   9.341596E+01   9.425453E+01   9.566622E+01   9.250388E+01   1.484265E+02   1.484265E+02   1.484265E+02   1.484265E+02   1.484265E+02   1.484265E+02
   1.484265E+02   9.467783E+01   9.173027E+01   9.298988E+01   9.223763E+01   9.405588E+01   9.620777E+01   9.720751E+01   1.000873E+02   9.888806E+01   9.623925E+01   1.484265E+02   1.484265E+02   1.484265E+02   1.484265E+02   1.484265E+02
   1.484265E+02   9.303352E+01   9.428275E+01   9.575761E+01   9.523450E+01   9.891287E+01   1.007976E+02   1.011070E+02   1.021280E+02   9.859000E+01   9.902953E+01   9.886673E+01   9.714775E+01   1.484265E+02   1.484265E+02   1.484265E+02
   1.484265E+02   9.840575E+01   9.628865E+01   9.809912E+01   1.010883E+02   1.044290E+02   1.015400E+02   1.062845E+02   1.051278E+02   1.024725E+02   1.021654E+02   1.000000E+02   9.911143E+01   1.484265E+02   1.484265E+02   1.484265E+02
   1.484265E+02   9.772202E+01   1.010909E+02   1.016457E+02   1.031147E+02   1.060540E+02   1.086939E+02   1.071608E+02   1.052014E+02   1.062361E+02   1.069602E+02   1.034503E+02   1.011834E+02   1.628868E+02   1.484265E+02   1.484265E+02
   1.484265E+02   1.484265E+02   1.029142E+02   1.056926E+02   1.100498E+02   1.125598E+02   1.154522E+02   1.132502E+02   1.135656E+02   1.118582E+02   1.067789E+02   1.050383E+02   1.025748E+02   1.484265E+02   1.484265E+02   1.484265E+02
   1.484265E+02   1.484265E+02   1.074299E+02   1.107757E+02   1.131291E+02   1.155750E+02   1.187349E+02   1.161483E+02   1.163936E+02   1.159192E+02   1.201939E+02   1.065236E+02   1.020397E+02   1.484265E+02   1.484265E+02   1.484265E+02
   1.484265E+02   1.484265E+02   1.095888E+02   1.145445E+02   1.162056E+02   1.189664E+02   1.218671E+02   1.236562E+02   1.221004E+02   1.265689E+02   1.499698E+02   1.022000E+02   1.051841E+02   1.049858E+02   1.484265E+02   1.484265E+02
   1.484265E+02   1.484265E+02   1.089379E+02   1.222437E+02   1.191672E+02   1.209692E+02   1.300000E+02   1.241527E+02   1.254235E+02   1.397761E+02   1.628868E+02   1.075237E+02   1.061526E+02   1.054177E+02   1.484265E+02   1.484265E+02
   1.484265E+02   1.484265E+02   1.484265E+02   1.397484E+02   1.490068E+02   1.283181E+02   1.308468E+02   1.299781E+02   1.309305E+02   1.463663E+02   1.852797E+02   1.085045E+02   1.064829E+02   1.057354E+02   1.086857E+02   1.484265E+02
   1.796930E+02   1.796930E+02   1.796930E+02   1.871685E+02   1.493863E+02   1.568755E+02   1.335977E+02   1.310533E+02   1.413836E+02   1.622661E+02   2.396104E+02   1.095458E+02   1.091033E+02   1.178424E+02   1.204468E+02   1.484265E+02
   1.796930E+02   1.796930E+02   1.796930E+02   1.739508E+02   1.689481E+02   1.537574E+02   1.422003E+02   1.338447E+02   1.514022E+02   1.799999E+02   1.709438E+02   1.184112E+02   1.149421E+02   1.201333E+02   1.421847E+02   1.484265E+02
   1.800000E+02   1.800000E+02   1.800000E+02   1.591465E+02   1.516388E+02   1.447973E+02   1.499265E+02   1.494829E+02   1.700779E+02   1.826914E+02   1.504512E+02   1.262272E+02   1.184571E+02   1.333294E+02   1.635891E+02   1.635891E+02
   2.269456E+02   2.269456E+02   1.782769E+02   1.698719E+02   1.887701E+02   1.800015E+02   1.547502E+02   1.700645E+02   1.804607E+02   2.027371E+02   1.467956E+02   1.341642E+02   1.329017E+02   1.498354E+02   1.537464E+02   1.635891E+02
   2.269456E+02   2.269456E+02   1.925874E+02   1.881889E+02   2.153752E+02   2.073613E+02   1.701071E+02   1.828490E+02   2.103450E+02   2.029463E+02   1.947274E+02   1.638955E+02   1.675433E+02   1.891063E+02   1.891063E+02   1.891063E+02
   2.509453E+02   2.509453E+02   2.532305E+02   2.110818E+02   1.953529E+02   1.754731E+02   1.800381E+02   1.908240E+02   2.156930E+02   2.068701E+02   1.821208E+02   2.177099E+02   2.177099E+02   1.891063E+02   1.891063E+02   1.891063E+02
   2.692145E+02   2.692145E+02   2.518207E+02   2.097853E+02   1.994700E+02   1.686703E+02   1.845895E+02   1.891050E+02   2.300000E+02   2.483258E+02   2.472553E+02   2.472553E+02   2.177099E+02   1.891063E+02   1.891063E+02   1.891063E+02
   3.581823E+02   3.581823E+02   3.227332E+02   2.180029E+02   2.500009E+02   2.052477E+02   2.052477E+02   1.908240E+02   2.300000E+02   2.703077E+02   3.018851E+02   3.018851E+02   3.018851E+02   2.177099E+02   1.891063E+02   1.891063E+02
   3.581823E+02   3.581823E+02   3.283650E+02   3.283650E+02   2.592126E+02   2.614941E+02   2.614941E+02   2.614941E+02   2.703077E+02   2.703077E+02   3.018851E+02   3.018851E+02   3.018851E+02   3.018851E+02   3.018851E+02   1.891063E+02
   3.899617E+02   3.899617E+02   3.899617E+02   3.899617E+02   2.592126E+02   2.614941E+02   2.614941E+02   2.614941E+02   2.703077E+02   2.703077E+02   3.018851E+02   3.018851E+02   3.018851E+02   3.018851E+02   3.018851E+02   3.018851E+02
   3.899617E+02   3.899617E+02   3.899617E+02   3.899617E+02   2.592126E+02   2.614941E+02   2.614941E+02   2.614941E+02   2.703077E+02   2.703077E+02   3.018851E+02   3.018851E+02   3.018851E+02   3.018851E+02   3.018851E+02   3.018851E+02
INTERNAL               1  (16E15.6) -1 #botm layer 1                  
   7.120728E+01   7.120728E+01   7.773459E+01   7.773459E+01   7.773459E+01   7.569153E+01   7.569153E+01   7.569153E+01   8.365852E+01   8.365852E+01   8.626379E+01   8.626379E+01   8.541989E+01   8.541989E+01   8.541989E+01   8.541989E+01
   7.525679E+01   7.525679E+01   7.787221E+01   7.787221E+01   7.569153E+01   7.569153E+01   7.569153E+01   8.365852E+01   8.365852E+01   8.626379E+01   8.626379E+01   8.541989E+01   8.541989E+01   8.541989E+01   8.541989E+01   8.541989E+01
   8.155634E+01   5.760430E+01   7.500017E+01   7.569153E+01   7.569153E+01   7.569153E+01   8.365852E+01   8.365852E+01   8.626379E+01   8.626379E+01   8.626379E+01   8.541989E+01   8.541989E+01   8.541989E+01   8.541989E+01   9.714775E+01
   8.240819E+01   5.486688E+01   5.307940E+01   8.095281E+01   8.095281E+01   8.365852E+01   8.365852E+01   8.626379E+01   8.626379E+01   8.626379E+01   8.541989E+01   8.541989E+01   8.541989E+01   8.541989E+01   9.714775E+01   9.714775E+01
   9.190927E+01   7.681839E+01   5.409735E+01   7.975546E+01   8.130721E+01   4.933514E+01   8.365852E+01   8.626379E+01   8.626379E+01   8.626379E+01   8.541989E+01   8.541989E+01   8.541989E+01   8.541989E+01   9.714775E+01   9.714775E+01
   9.190927E+01   5.820223E+01   5.344379E+01   5.318237E+01   8.059616E+01   5.632698E+01   8.762576E+01   8.626379E+01   8.626379E+01   8.541989E+01   8.541989E+01   8.541989E+01   8.541989E+01   9.714775E+01   9.714775E+01   9.714775E+01
   9.306590E+01   7.256163E+01   6.054429E+01   6.101752E+01   6.304441E+01   6.280954E+01   6.123434E+01   8.626379E+01   8.626379E+01   8.541989E+01   8.541989E+01   8.541989E+01   9.623925E+01   9.714775E+01   9.714775E+01   9.714775E+01
   8.551621E+01   7.758911E+01   6.333089E+01   6.770599E+01   7.134975E+01   7.064214E+01   6.922510E+01   6.943436E+01   5.823082E+01   8.541989E+01   8.541989E+01   9.623925E+01   9.714775E+01   9.714775E+01   9.714775E+01   9.714775E+01
   9.980193E+01   9.173385E+01   6.734968E+01   7.050805E+01   7.523802E+01   7.682323E+01   7.926263E+01   7.016370E+01   7.505461E+01   7.215910E+01   6.473792E+01   9.623925E+01   9.714775E+01   9.714775E+01   9.714775E+01   9.714775E+01
   9.303352E+01   8.756445E+01   7.053806E+01   7.248670E+01   7.359203E+01   7.330457E+01   7.699181E+01   7.769247E+01   7.819155E+01   7.556110E+01   7.093541E+01   7.333486E+01   7.095483E+01   9.714775E+01   9.714775E+01   9.714775E+01
   9.840575E+01   7.618031E+01   9.125419E+01   7.492589E+01   7.843742E+01   7.835802E+01   7.445253E+01   7.724637E+01   8.205914E+01   8.000969E+01   7.898891E+01   7.643161E+01   7.608942E+01   9.911143E+01   9.911143E+01   1.007513E+02
   9.772202E+01   7.600089E+01   9.650964E+01   8.135981E+01   8.168175E+01   7.991371E+01   8.729595E+01   7.831497E+01   8.232033E+01   8.601474E+01   8.596082E+01   7.997195E+01   8.144598E+01   1.543680E+02   1.011834E+02   1.011834E+02
   9.991425E+01   9.991425E+01   9.991425E+01   8.989845E+01   9.245837E+01   9.193614E+01   9.676626E+01   9.350522E+01   8.955611E+01   9.204889E+01   8.957771E+01   8.959669E+01   8.519643E+01   1.025748E+02   1.025748E+02   1.049858E+02
   1.001103E+02   1.001103E+02   1.001103E+02   1.034360E+02   9.593893E+01   1.000502E+02   1.035852E+02   9.394479E+01   9.319877E+01   9.765083E+01   1.178605E+02   1.011534E+02   8.000536E+01   1.020397E+02   1.049858E+02   1.049858E+02
   1.044891E+02   1.044891E+02   1.044891E+02   1.104439E+02   1.099590E+02   1.098313E+02   1.056329E+02   1.030960E+02   1.027705E+02   1.241097E+02   1.356841E+02   8.952523E+01   8.036805E+01   7.937041E+01   1.049858E+02   1.049858E+02
   1.089379E+02   1.089379E+02   9.314348E+01   1.195170E+02   1.025784E+02   1.083035E+02   1.258803E+02   1.045359E+02   1.187650E+02   1.367646E+02   1.543680E+02   8.945570E+01   8.806580E+01   8.619096E+01   1.054177E+02   1.086857E+02
   1.089379E+02   1.089379E+02   1.089379E+02   1.254627E+02   1.347211E+02   1.255498E+02   1.185162E+02   1.125462E+02   1.239466E+02   1.320806E+02   1.709940E+02   1.049998E+02   1.011747E+02   1.007513E+02   9.816499E+01   1.086857E+02
   1.796930E+02   1.796930E+02   1.796930E+02   1.728828E+02   1.470530E+02   1.425898E+02   1.313292E+02   1.167196E+02   1.345340E+02   1.562661E+02   2.253246E+02   8.435979E+01   1.021742E+02   1.035567E+02   1.061611E+02   1.204468E+02
   1.796930E+02   1.796930E+02   1.654073E+02   1.596651E+02   1.546624E+02   1.394717E+02   1.378596E+02   1.267442E+02   1.490689E+02   1.657142E+02   1.616647E+02   1.061502E+02   1.095678E+02   1.178000E+02   1.278990E+02   1.421847E+02
   1.800000E+02   1.800000E+02   1.657143E+02   1.568132E+02   1.460281E+02   1.427973E+02   1.484265E+02   1.454310E+02   1.635836E+02   1.777557E+02   1.434512E+02   1.208218E+02   1.161237E+02   1.319294E+02   1.493034E+02   1.635891E+02
   2.269456E+02   2.269456E+02   1.755264E+02   1.555862E+02   1.744844E+02   1.657158E+02   1.537464E+02   1.557788E+02   1.661750E+02   1.884514E+02   1.444623E+02   1.288197E+02   1.318085E+02   1.355497E+02   1.498354E+02   1.635891E+02
   2.269456E+02   2.126599E+02   1.902541E+02   1.739032E+02   2.010895E+02   1.930756E+02   1.667548E+02   1.685633E+02   1.960593E+02   1.886606E+02   1.804417E+02   1.615621E+02   1.532576E+02   1.748205E+02   1.891063E+02   1.891063E+02
   2.509453E+02   2.366596E+02   2.389448E+02   1.967960E+02   1.810672E+02   1.611873E+02   1.764514E+02   1.891196E+02   2.014073E+02   1.925844E+02   1.751208E+02   2.034241E+02   2.177099E+02   1.891063E+02   1.891063E+02   1.891063E+02
   2.692145E+02   2.549288E+02   2.375350E+02   2.084677E+02   1.851843E+02   1.543846E+02   1.703038E+02   1.832612E+02   2.157143E+02   2.340401E+02   2.329696E+02   2.472553E+02   2.177099E+02   1.891063E+02   1.891063E+02   1.891063E+02
   3.581823E+02   3.438966E+02   3.084474E+02   2.037172E+02   2.357152E+02   1.909620E+02   2.052477E+02   1.908240E+02   2.300000E+02   2.560220E+02   2.875994E+02   3.018851E+02   3.018851E+02   2.177099E+02   1.891063E+02   1.891063E+02
   3.581823E+02   3.581823E+02   3.140793E+02   3.283650E+02   2.449269E+02   2.472084E+02   2.614941E+02   2.614941E+02   2.703077E+02   2.703077E+02   3.018851E+02   3.018851E+02   3.018851E+02   3.018851E+02   3.018851E+02   1.891063E+02
   3.899617E+02   3.899617E+02   3.756760E+02   3.899617E+02   2.592126E+02   2.614941E+02   2.614941E+02   2.614941E+02   2.703077E+02   2.703077E+02   3.018851E+02   3.018851E+02   3.018851E+02   3.018851E+02   3.018851E+02   3.018851E+02
   3.899617E+02   3.899617E+02   3.899617E+02   3.899617E+02   2.592126E+02   2.614941E+02   2.614941E+02   2.614941E+02   2.703077E+02   2.703077E+02   3.018851E+02   3.018851E+02   3.018851E+02   3.018851E+02   3.018851E+02   3.018851E+02
INTERNAL               1  (16E15.6) -1 #botm layer 2                  
   1.462247E+01   3.348407E+01   3.229575E+01   1.462247E+01   1.462247E+01   1.462247E+01   1.462247E+01   1.462247E+01   1.462247E+01   1.462247E+01   1.462247E+01   1.462247E+01   1.462247E+01   1.462247E+01   1.462247E+01   1.462247E+01
   1.462247E+01   2.650052E+01   3.441005E+01   1.462247E+01   1.462247E+01   1.462247E+01   1.462247E+01   1.462247E+01   1.462247E+01   1.462247E+01   1.462247E+01   1.462247E+01   1.462247E+01   1.462247E+01   1.462247E+01   1.462247E+01
   1.462247E+01   3.365226E+01   2.561154E+01   2.419329E+01   1.462247E+01   1.462247E+01   1.462247E+01   1.462247E+01   1.462247E+01   1.462247E+01   1.462247E+01   1.462247E+01   1.462247E+01   1.462247E+01   1.462247E+01   1.856898E+01
   1.462247E+01   2.732557E+01   2.288838E+01   1.675960E+01   1.462247E+01   1.462247E+01   1.462247E+01   1.462247E+01   1.462247E+01   1.462247E+01   1.462247E+01   1.462247E+01   1.462247E+01   1.462247E+01   1.856898E+01   1.856898E+01
   9.190927E+01   1.934359E+01   2.231180E+01   1.278754E+01   9.613853E+00   1.501176E+01   1.462247E+01   1.462247E+01   1.462247E+01   1.462247E+01   1.462247E+01   1.462247E+01   1.462247E+01   1.462247E+01   1.856898E+01   1.856898E+01
   8.774853E+01   3.389438E+01   2.231174E+01   2.079150E+01   1.745717E+01   2.502820E+01   1.462247E+01   1.462247E+01   1.462247E+01   1.462247E+01   1.462247E+01   1.462247E+01   1.462247E+01   1.856898E+01   1.856898E+01   1.856898E+01
   9.000167E+01   5.825987E+01   3.463297E+01   3.457582E+01   3.722902E+01   3.719041E+01   3.140755E+01   3.346126E+01   1.462247E+01   1.462247E+01   1.462247E+01   1.462247E+01   1.462247E+01   1.856898E+01   1.856898E+01   1.856898E+01
   7.123050E+01   6.683218E+01   3.776547E+01   4.478006E+01   5.180774E+01   5.020802E+01   4.503424E+01   4.461418E+01   2.079541E+01   3.336250E+01   1.462247E+01   1.462247E+01   1.856898E+01   1.856898E+01   1.856898E+01   1.856898E+01
   9.980193E+01   8.878988E+01   4.296909E+01   4.802621E+01   5.823842E+01   5.959058E+01   6.231750E+01   4.311988E+01   5.002193E+01   4.543013E+01   3.323659E+01   1.462247E+01   1.856898E+01   1.856898E+01   1.856898E+01   1.856898E+01
   7.662629E+01   8.209537E+01   4.679338E+01   4.921579E+01   5.194954E+01   4.769627E+01   5.318604E+01   5.427794E+01   5.425515E+01   5.253220E+01   4.284130E+01   4.780299E+01   4.476191E+01   1.856898E+01   1.856898E+01   1.856898E+01
   3.172944E+01   5.395488E+01   4.640792E+01   5.175265E+01   5.578656E+01   5.228707E+01   4.736511E+01   4.820819E+01   5.899044E+01   5.754688E+01   5.581242E+01   5.286322E+01   5.306740E+01   3.004538E+01   3.004538E+01   3.004538E+01
   3.255865E+01   5.427977E+01   5.566092E+01   6.107396E+01   6.024875E+01   5.377341E+01   6.589798E+01   4.946918E+01   5.943927E+01   6.579340E+01   6.496145E+01   5.649361E+01   6.170859E+01   1.474265E+02   4.197120E+01   4.197120E+01
   3.255865E+01   3.255865E+01   6.733683E+01   7.410425E+01   7.486699E+01   7.131245E+01   7.808034E+01   7.376028E+01   6.554659E+01   7.223959E+01   7.237648E+01   7.415508E+01   6.781807E+01   5.043971E+01   5.043971E+01   2.813970E+01
   6.212673E+01   6.212673E+01   7.478791E+01   7.389706E+01   7.874876E+01   8.452527E+01   8.843539E+01   7.174132E+01   7.000394E+01   7.938248E+01   1.155272E+02   9.578330E+01   5.797096E+01   3.593657E+01   2.813970E+01   2.813970E+01
   9.903105E+01   9.903105E+01   1.008504E+02   8.448487E+01   8.049369E+01   1.006962E+02   8.939862E+01   8.253587E+01   8.344058E+01   1.216505E+02   1.213984E+02   7.685046E+01   5.555203E+01   5.375506E+01   2.813970E+01   2.813970E+01
   6.212673E+01   6.212673E+01   7.734901E+01   1.167903E+02   1.019117E+02   9.563769E+01   1.217606E+02   8.491914E+01   9.164097E+01   1.337532E+02   1.527003E+02   7.138766E+01   6.997899E+01   6.696420E+01   4.773745E+01   7.712351E+01
   6.212673E+01   7.150536E+01   7.150536E+01   1.111770E+02   1.204354E+02   1.227816E+02   1.061855E+02   9.511433E+01   1.169626E+02   1.177949E+02   1.567083E+02   6.028613E+01   6.921529E+01   6.039815E+01   8.764426E+01   7.712351E+01
   1.796930E+02   1.796930E+02   1.796930E+02   1.585971E+02   1.447196E+02   1.283041E+02   1.290607E+02   1.023860E+02   1.276844E+02   1.555994E+02   2.110389E+02   5.917378E+01   9.524503E+01   8.927102E+01   9.187540E+01   1.204468E+02
   1.796930E+02   1.796930E+02   1.511216E+02   1.453794E+02   1.403767E+02   1.251860E+02   1.335190E+02   1.196437E+02   1.467356E+02   1.514285E+02   1.609980E+02   9.388912E+01   1.041936E+02   1.154667E+02   1.136133E+02   1.421847E+02
   1.800000E+02   1.800000E+02   1.514286E+02   1.544798E+02   1.404173E+02   1.407973E+02   1.474265E+02   1.413792E+02   1.629124E+02   1.763795E+02   1.398741E+02   1.154164E+02   1.137904E+02   1.305294E+02   1.350177E+02   1.635891E+02
   2.269456E+02   2.269456E+02   1.727760E+02   1.413005E+02   1.601987E+02   1.514301E+02   1.527464E+02   1.414931E+02   1.518893E+02   1.741656E+02   1.421289E+02   1.277161E+02   1.307152E+02   1.212640E+02   1.498354E+02   1.635891E+02
   2.269456E+02   1.983742E+02   1.879208E+02   1.596175E+02   1.868038E+02   1.787899E+02   1.634025E+02   1.542776E+02   1.817736E+02   1.743749E+02   1.661560E+02   1.592288E+02   1.389719E+02   1.605348E+02   1.891063E+02   1.891063E+02
   2.509453E+02   2.223739E+02   2.246591E+02   1.825103E+02   1.667815E+02   1.469016E+02   1.728647E+02   1.874153E+02   1.871216E+02   1.782986E+02   1.715436E+02   1.891384E+02   2.177099E+02   1.891063E+02   1.891063E+02   1.891063E+02
   2.692145E+02   2.406431E+02   2.232493E+02   2.071501E+02   1.708986E+02   1.400989E+02   1.560181E+02   1.809757E+02   2.014286E+02   2.197544E+02   2.186839E+02   2.472553E+02   2.177099E+02   1.891063E+02   1.891063E+02   1.891063E+02
   3.581823E+02   3.296109E+02   2.941617E+02   1.894315E+02   2.214295E+02   1.766763E+02   2.052477E+02   1.908240E+02   2.300000E+02   2.417363E+02   2.733136E+02   3.018851E+02   3.018851E+02   2.177099E+02   1.891063E+02   1.891063E+02
   3.581823E+02   3.581823E+02   2.997935E+02   3.283650E+02   2.306412E+02   2.329227E+02   2.614941E+02   2.614941E+02   2.703077E+02   2.703077E+02   3.018851E+02   3.018851E+02   3.018851E+02   3.018851E+02   3.018851E+02   1.891063E+02
   3.899617E+02   3.899617E+02   3.613902E+02   3.899617E+02   2.592126E+02   2.614941E+02   2.614941E+02   2.614941E+02   2.703077E+02   2.703077E+02   3.018851E+02   3.018851E+02   3.018851E+02   3.018851E+02   3.018851E+02   3.018851E+02
   3.899617E+02   3.899617E+02   3.899617E+02   3.899617E+02   2.592126E+02   2.614941E+02   2.614941E+02   2.614941E+02   2.703077E+02   2.703077E+02   3.018851E+02   3.018851E+02   3.018851E+02   3.018851E+02   3.018851E+02   3.018851E+02
INTERNAL               1  (16E15.6) -1 #botm layer 3                  
   0.000000E+00   1.462247E+01   9.576332E+00   9.576332E+00   9.576332E+00  -1.555832E+00  -1.555832E+00  -1.555832E+00  -1.931161E+01  -1.931161E+01  -1.931161E+01  -1.931161E+01   7.333802E+00   7.333802E+00   7.333802E+00   7.333802E+00
   2.122381E+00   2.122381E+00   1.267898E+01   1.267898E+01  -1.555832E+00  -1.555832E+00  -1.555832E+00  -1.931161E+01  -1.931161E+01  -1.931161E+01  -1.931161E+01   7.333802E+00   7.333802E+00   7.333802E+00   7.333802E+00   7.333802E+00
   9.700222E+00   9.700222E+00   9.172273E-01  -1.555832E+00  -1.555832E+00  -1.555832E+00  -1.931161E+01  -1.931161E+01  -1.931161E+01  -1.931161E+01   7.059987E+00   7.333802E+00   7.333802E+00   7.333802E+00   7.333802E+00   1.856898E+01
  -2.157384E-01  -2.157384E-01  -7.302645E+00  -1.533701E+01  -1.533701E+01  -1.931161E+01  -1.931161E+01  -1.931161E+01  -1.931161E+01   7.059987E+00   7.333802E+00   7.333802E+00   7.333802E+00   7.333802E+00   1.856898E+01   1.856898E+01
   9.190927E+01  -9.393810E+00  -9.473759E+00  -2.069642E+01  -2.623282E+01  -1.931161E+01  -1.931161E+01  -1.931161E+01   7.059987E+00   7.059987E+00   7.333802E+00   7.333802E+00   7.333802E+00   7.333802E+00   1.856898E+01   1.856898E+01
   8.566815E+01   9.586522E+00  -8.820305E+00  -1.159936E+01  -1.411233E+01  -6.270578E+00  -6.270578E+00   7.059987E+00   7.059987E+00   7.333802E+00   7.333802E+00   7.333802E+00   7.333802E+00   1.856898E+01   1.856898E+01   1.856898E+01
   8.693744E+01   4.395812E+01   8.721649E+00   8.134130E+00   1.141364E+01   1.157128E+01   1.580746E+00   7.059987E+00   7.059987E+00   7.333802E+00   7.333802E+00   7.333802E+00   1.735259E+00   1.856898E+01   1.856898E+01   1.856898E+01
   5.694478E+01   5.607526E+01   1.220005E+01   2.185413E+01   3.226572E+01   2.977390E+01   2.084338E+01   1.979401E+01  -1.664000E+01   7.333802E+00   7.333802E+00   1.735259E+00   1.856898E+01   1.856898E+01   1.856898E+01   1.856898E+01
   9.980193E+01   8.584590E+01   1.858849E+01   2.554437E+01   4.123882E+01   4.235794E+01   4.537236E+01   1.607607E+01   2.498925E+01   1.870116E+01   1.735259E+00   1.735259E+00   1.856898E+01   1.856898E+01   1.856898E+01   1.856898E+01
   7.662629E+01   7.662629E+01   2.304869E+01   2.594488E+01   3.030706E+01   2.208797E+01   2.938026E+01   3.086340E+01   3.031876E+01   2.950330E+01   1.474718E+01   2.227112E+01   1.856898E+01   1.856898E+01   1.856898E+01   1.856898E+01
   3.172944E+01   3.172944E+01   2.398478E+01   2.857942E+01   3.313571E+01   2.621612E+01   2.027769E+01   1.917002E+01   3.592175E+01   3.508407E+01   3.263593E+01   2.929482E+01   3.004538E+01   3.004538E+01   3.004538E+01   3.004538E+01
   3.255865E+01   3.255865E+01   3.523657E+01   4.078810E+01   3.881576E+01   2.763311E+01   4.450000E+01   2.062338E+01   3.655822E+01   4.557204E+01   4.396208E+01   3.301527E+01   4.197120E+01   4.197120E+01   4.197120E+01   4.197120E+01
   3.255865E+01   3.255865E+01   5.104812E+01   5.831005E+01   5.727560E+01   5.068876E+01   5.939442E+01   5.401535E+01   4.153706E+01   5.243029E+01   5.517524E+01   5.871347E+01   5.043971E+01   5.043971E+01   5.043971E+01   2.813970E+01
   6.212673E+01   6.212673E+01   6.212673E+01   5.912757E+01   6.155857E+01   6.900038E+01   7.328561E+01   4.953784E+01   4.680910E+01   6.111412E+01   1.131939E+02   9.041317E+01   3.593657E+01   3.593657E+01   2.813970E+01   2.813970E+01
   9.903105E+01   9.903105E+01   9.903105E+01   7.150536E+01   6.576106E+01   9.156105E+01   7.316437E+01   6.197572E+01   6.411067E+01   1.191914E+02   1.071126E+02   6.417569E+01   3.073601E+01   2.813970E+01   2.813970E+01   2.813970E+01
   6.212673E+01   6.212673E+01   6.155455E+01   1.140635E+02   1.015784E+02   8.297191E+01   1.176409E+02   6.530234E+01   7.807894E+01   1.307418E+02   1.518665E+02   5.331962E+01   5.189217E+01   4.773745E+01   4.773745E+01   7.712351E+01
   6.212673E+01   7.150536E+01   7.150536E+01   9.689130E+01   1.061497E+02   1.200133E+02   9.385489E+01   7.768246E+01   1.099787E+02   1.035092E+02   1.424225E+02   3.792929E+01   5.323556E+01   4.022158E+01   7.712351E+01   7.712351E+01
   1.796930E+02   1.796930E+02   1.796930E+02   1.443114E+02   1.423863E+02   1.140184E+02   1.267922E+02   8.805238E+01   1.208348E+02   1.552661E+02   1.967532E+02   3.398776E+01   8.831591E+01   7.498531E+01   7.758968E+01   1.204468E+02
   1.796930E+02   1.796930E+02   1.368359E+02   1.310937E+02   1.260910E+02   1.109002E+02   1.291783E+02   1.125432E+02   1.444022E+02   1.371428E+02   1.606647E+02   8.162808E+01   9.881927E+01   1.131333E+02   9.932758E+01   1.421847E+02
   1.800000E+02   1.800000E+02   1.371429E+02   1.521465E+02   1.348066E+02   1.387973E+02   1.259204E+02   1.373274E+02   1.625769E+02   1.756914E+02   1.380855E+02   1.100110E+02   1.114571E+02   1.291294E+02   1.207320E+02   1.635891E+02
   2.269456E+02   2.269456E+02   1.700256E+02   1.270148E+02   1.459130E+02   1.371444E+02   1.410941E+02   1.272074E+02   1.376036E+02   1.598799E+02   1.397956E+02   1.271642E+02   1.296219E+02   1.069783E+02   1.498354E+02   1.635891E+02
   2.269456E+02   1.840885E+02   1.855874E+02   1.453318E+02   1.725181E+02   1.645042E+02   1.321626E+02   1.399919E+02   1.674878E+02   1.600891E+02   1.518703E+02   1.568955E+02   1.246861E+02   1.462491E+02   1.891063E+02   1.891063E+02
   2.509453E+02   2.080882E+02   2.103734E+02   1.682246E+02   1.524958E+02   1.326159E+02   1.692780E+02   1.857109E+02   1.728358E+02   1.640129E+02   1.697550E+02   1.748527E+02   2.177099E+02   1.891063E+02   1.891063E+02   1.891063E+02
   2.692145E+02   2.263574E+02   2.089635E+02   2.058325E+02   1.566129E+02   1.258131E+02   1.417324E+02   1.798329E+02   1.871429E+02   2.054687E+02   2.043982E+02   2.472553E+02   2.177099E+02   1.891063E+02   1.891063E+02   1.891063E+02
   3.581823E+02   3.153252E+02   2.798760E+02   1.751458E+02   2.071437E+02   1.623905E+02   2.052477E+02   1.908240E+02   2.300000E+02   2.274506E+02   2.590279E+02   3.018851E+02   3.018851E+02   2.177099E+02   1.891063E+02   1.891063E+02
   3.581823E+02   3.581823E+02   2.855078E+02   3.283650E+02   2.163554E+02   2.186370E+02   2.614941E+02   2.614941E+02   2.703077E+02   2.703077E+02   3.018851E+02   3.018851E+02   3.018851E+02   3.018851E+02   3.018851E+02   1.891063E+02
   3.899617E+02   3.899617E+02   3.471045E+02   3.899617E+02   2.592126E+02   2.614941E+02   2.614941E+02   2.614941E+02   2.703077E+02   2.703077E+02   3.018851E+02   3.018851E+02   3.018851E+02   3.018851E+02   3.018851E+02   3.018851E+02
   3.899617E+02   3.899617E+02   3.899617E+02   3.899617E+02   2.592126E+02   2.614941E+02   2.614941E+02   2.614941E+02   2.703077E+02   2.703077E+02   3.018851E+02   3.018851E+02   3.018851E+02   3.018851E+02   3.018851E+02   3.018851E+02
INTERNAL               1  (16E15.6) -1 #botm layer 4                  
  -3.620832E+00  -3.620832E+00  -1.387684E+01  -3.620832E+00  -3.620832E+00  -3.620832E+00  -3.620832E+00  -3.620832E+00   0.000000E+00   0.000000E+00   0.000000E+00   0.000000E+00  -3.620832E+00  -3.620832E+00  -3.620832E+00  -3.620832E+00
  -3.620832E+00  -1.640359E+01  -2.098295E+01  -3.620832E+00  -3.620832E+00  -3.620832E+00  -3.620832E+00   0.000000E+00   0.000000E+00   0.000000E+00   0.000000E+00  -3.620832E+00  -3.620832E+00  -3.620832E+00  -3.620832E+00  -3.620832E+00
  -3.620832E+00  -2.269734E+01  -3.101135E+01  -3.194341E+01  -3.620832E+00  -3.620832E+00   0.000000E+00   0.000000E+00   0.000000E+00   0.000000E+00  -3.620832E+00  -3.620832E+00  -3.620832E+00  -3.620832E+00  -3.620832E+00  -3.620832E+00
  -3.620832E+00  -2.707270E+01  -3.347522E+01  -3.201928E+01   0.000000E+00   0.000000E+00   0.000000E+00   0.000000E+00   0.000000E+00  -3.620832E+00  -3.620832E+00  -3.620832E+00  -3.620832E+00  -3.620832E+00  -3.620832E+00  -3.620832E+00
   9.190927E+01  -3.194592E+01  -2.992648E+01  -4.241985E+01  -5.089613E+01  -5.192676E+01   0.000000E+00   0.000000E+00  -3.620832E+00  -3.620832E+00  -3.620832E+00  -3.620832E+00  -3.620832E+00  -3.620832E+00  -3.620832E+00  -3.620832E+00
   8.358778E+01  -1.112918E+01  -2.620082E+01  -3.448327E+01  -3.977658E+01  -3.707983E+01   0.000000E+00  -3.620832E+00  -3.620832E+00  -3.620832E+00  -3.620832E+00  -3.620832E+00  -3.620832E+00  -3.620832E+00  -3.620832E+00  -3.620832E+00
   7.933208E+01   2.941761E+01  -1.393529E+01  -1.497879E+01  -2.057483E+01  -1.933054E+01  -5.927396E+00  -5.567594E+01  -3.620832E+00  -3.620832E+00  -3.620832E+00  -3.620832E+00  -3.620832E+00  -3.620832E+00  -3.620832E+00  -3.620832E+00
   4.265907E+01   4.372241E+01  -1.555095E+00   3.964088E+00   5.988756E+00   5.778191E+00  -2.740574E+00  -1.312662E+01  -3.971751E+01  -1.280424E+01  -3.620832E+00  -3.620832E+00  -3.620832E+00  -3.620832E+00  -3.620832E+00  -3.620832E+00
   9.980193E+01   7.831477E+01  -9.030685E+00   8.350405E+00   1.018528E+01   9.922310E+00   9.590759E+00  -1.016358E+01  -2.973528E+00  -6.431843E+00  -1.228681E+01  -3.620832E+00  -3.620832E+00  -3.620832E+00  -3.620832E+00  -3.620832E+00