# GHB for MODFLOW, generated by Flopy.
       231        53
       231         0 # stress period 0
         1         1         2   7.9121994E+01   1.9761047E+01
         2         1         2   7.9121994E+01   9.4308006E+01
         3         1         2   7.9121994E+01   4.7154003E+01
         4         1         2   7.9121994E+01   4.5608261E+01
         5         1         2   7.9121994E+01   2.6329058E+01
         6         1         2   7.9121994E+01   3.3044287E+02
         7         1         2   7.9121994E+01   2.2789719E+02
         1         1         3   8.0994759E+01   8.1246758E+00
         2         1         3   8.0994759E+01   1.1359710E+02
         3         1         3   8.0994759E+01   5.6798546E+01
         4         1         3   8.0994759E+01   5.8632931E+01
         5         1         3   8.0994759E+01   1.4658232E+01
         6         1         3   8.0994759E+01   3.9941074E+02
         7         1         3   8.0994759E+01   2.5000000E+01
         1         2         3   8.0982262E+01   7.7493858E+00
         2         2         3   8.0982262E+01   1.0865539E+02
         3         2         3   8.0982262E+01   5.4327682E+01
         4         2         3   8.0982262E+01   8.4154816E+01
         5         2         3   8.0982262E+01   2.1038708E+01
         6         2         3   8.0982262E+01   3.3034702E+02
         7         2         3   8.0982262E+01   2.4325829E+02
         1         3         4   8.3251610E+01   1.8874454E+01
         2         3         4   8.3251610E+01   1.2874561E+02
         3         3         4   8.3251610E+01   6.4372795E+01
         4         3         4   8.3251610E+01   7.5968933E+01
         5         3         4   8.3251610E+01   1.8992233E+01
         6         3         4   8.3251610E+01   2.4361595E+02
         7         3         4   8.3251610E+01   2.2320518E+02
         1         4         4   8.3963112E+01   7.5000000E+00
         2         4         4   8.3963112E+01   1.6048303E+02
         3         4         4   8.3963112E+01   8.0241524E+01
         4         4         4   8.3963112E+01   4.1705662E+01
         5         4         4   8.3963112E+01   1.0426416E+01
         6         4         4   8.3963112E+01   1.5452356E+02
         7         4         4   8.3963112E+01   1.8875687E+02
         1         5         5   8.4317513E+01   7.5000000E+00
         2         5         5   8.4317513E+01   1.7923340E+02
         3         5         5   8.4317513E+01   8.9616692E+01
         4         5         5   8.4317513E+01   6.1658279E+01
         5         5         5   8.4317513E+01   1.5414572E+01
         6         5         5   8.4317513E+01   1.3682828E+02
         7         5         5   8.4317513E+01   2.0149045E+02
         1         5         6   8.3668823E+01   8.5808449E+01
         2         5         6   8.3668823E+01   8.5808449E+01
         3         5         6   8.3668823E+01   8.5808441E+01
         4         5         6   8.3668823E+01   8.1537865E+01
         5         5         6   8.3668823E+01   2.0384464E+01
         6         5         6   8.3668823E+01   1.2528963E+02
         7         5         6   8.3668823E+01   1.9946942E+02
         1         6         6   8.7636063E+01   7.8246956E+01
         2         6         6   8.7636063E+01   7.8246948E+01
         3         6         6   8.7636063E+01   7.8246948E+01
         4         6         6   8.7636063E+01   7.7023125E+01
         5         6         6   8.7636063E+01   1.9255781E+01
         6         6         6   8.7636063E+01   2.5000000E+00
         7         6         6   8.7636063E+01   1.4506711E+02
         1         7         7   9.1071442E+01   7.4566994E+01
         2         7         7   9.1071442E+01   7.4566994E+01
         3         7         7   9.1071442E+01   7.4567001E+01
         4         7         7   9.1071442E+01   1.8770353E+01
         5         7         7   9.1071442E+01   4.6925869E+00
         6         7         7   9.1071442E+01   9.7696304E+01
         7         7         7   9.1071442E+01   1.6282711E+01
         1         7         8   9.1170517E+01   1.2241058E+01
         2         7         8   9.1170517E+01   1.3200635E+02
         3         7         8   9.1170517E+01   6.6003174E+01
         4         7         8   9.1170517E+01   1.5683981E+02
         5         7         8   9.1170517E+01   3.9209946E+01
         6         7         8   9.1170517E+01   1.8159008E+01
         7         7         8   9.1170517E+01   1.7780536E+02
         1         8         8   9.4264832E+01   6.2050438E+01
         2         8         8   9.4264832E+01   6.2050438E+01
         3         8         8   9.4264832E+01   6.2050434E+01
         4         8         8   9.4264832E+01   8.2301567E+01
         5         8         8   9.4264832E+01   2.0575390E+01
         6         8         8   9.4264832E+01   9.9926956E+01
         7         8         8   9.4264832E+01   1.6502386E+02
         1         8         9   9.5676521E+01   9.3588516E+01
         2         8         9   9.5676521E+01   9.3588516E+01
         3         8         9   9.5676521E+01   9.3588524E+01
         4         8         9   9.5676521E+01   5.7693787E+01
         5         8         9   9.5676521E+01   1.4423447E+01
         6         8         9   9.5676521E+01   9.7434296E+01
         7         8         9   9.5676521E+01   1.8711417E+02
         1         8        10   9.2514175E+01   1.7709961E+01
         2         8        10   9.2514175E+01   1.3014348E+02
         3         8        10   9.2514175E+01   6.5071739E+01
         4         8        10   9.2514175E+01   5.0345116E+01
         5         8        10   9.2514175E+01   1.2586281E+01
         6         8        10   9.2514175E+01   2.3069383E+02
         7         8        10   9.2514175E+01   2.2475052E+02
         1         9        11   9.6249550E+01   7.8753319E+01
         2         9        11   9.6249550E+01   7.8753326E+01
         3         9        11   9.6249550E+01   7.8753334E+01
         4         9        11   9.6249550E+01   3.5055168E+01
         5         9        11   9.6249550E+01   8.7637949E+00
         6         9        11   9.6249550E+01   1.3451775E+02
         7         9        11   9.6249550E+01   4.1968320E+02
         1         6         1   1.0459330E+02   4.1887329E+02
         2         6         1   1.0459330E+02   1.3751257E+02
         3         6         1   1.0459330E+02   6.8756416E+01
         4         6         1   1.0459330E+02   6.8756416E+01
         5         6         1   1.0459330E+02   6.8756416E+01
         6         6         1   1.0459330E+02   6.8756165E+01
         7         6         1   1.0459330E+02   6.8756416E+01
         1         7         1   9.6140228E+01   1.0127287E+02
         2         7         1   9.6140228E+01   1.0127261E+02
         3         7         1   9.6140228E+01   1.0127287E+02
         4         7         1   9.6140228E+01   2.5135696E+02
         5         7         1   9.6140228E+01   6.2839176E+01
         6         7         1   9.6140228E+01   6.2839176E+01
         7         7         1   9.6140228E+01   6.2839176E+01
         1         8         1   9.9812027E+01   4.7214282E+02
         2         8         1   9.9812027E+01   4.7214282E+02
         3         8         1   9.9812027E+01   4.7214294E+02
         4         8         1   9.9812027E+01   4.7214282E+02
         5         8         1   9.9812027E+01   4.7214294E+02
         6         8         1   9.9812027E+01   4.7214282E+02
         7         8         1   9.9812027E+01   4.7214282E+02
         1         1         2   7.9121796E+01   2.6124106E+02
         2         1         2   7.9121796E+01   1.2467518E+03
         3         1         2   7.9121796E+01   6.2337592E+02
         4         1         2   7.9121796E+01   6.0294122E+02
         5         1         2   7.9121796E+01   3.4807016E+02
         6         1         2   7.9121796E+01   4.3684546E+03
         7         1         2   7.9121796E+01   3.0128008E+03
         1         3         2   8.1566437E+01   7.9161475E+02
         2         3         2   8.1566437E+01   7.9161487E+02
         3         3         2   8.1566437E+01   7.9161499E+02
         4         3         2   8.1566437E+01   1.0707394E+03
         5         3         2   8.1566437E+01   2.6768491E+02
         6         3         2   8.1566437E+01   3.7306157E+03
         7         3         2   8.1566437E+01   3.0102983E+03
         1         4         2   8.2418289E+01   9.1024017E+02
         2         4         2   8.2418289E+01   9.1024030E+02
         3         4         2   8.2418289E+01   9.1024036E+02
         4         4         2   8.2418289E+01   8.8762256E+02
         5         4         2   8.2418289E+01   2.2190573E+02
         6         4         2   8.2418289E+01   3.0046584E+03
         7         4         2   8.2418289E+01   2.7946665E+03
         1         5         2   8.2140099E+01   1.7554863E+02
         2         5         2   8.2140099E+01   1.8995422E+03
         3         5         2   8.2140099E+01   9.4977094E+02
         4         5         2   8.2140099E+01   7.4534705E+02
         5         5         2   8.2140099E+01   1.8633679E+02
         6         5         2   8.2140099E+01   6.4580788E+01
         7         5         2   8.2140099E+01   1.7781056E+03
         1         9         2   9.4687927E+01   9.7298454E+01
         2         9         2   9.4687927E+01   9.7298203E+01
         3         9         2   9.4687927E+01   9.7298454E+01
         4         9         2   9.4687927E+01   2.4890404E+02
         5         9         2   9.4687927E+01   6.2225945E+01
         6         9         2   9.4687927E+01   6.2226196E+01
         7         9         2   9.4687927E+01   6.2225945E+01
         1        10         2   9.3043625E+01   1.8075304E+02
         2        10         2   9.3043625E+01   1.8075304E+02
         3        10         2   9.3043625E+01   1.8075304E+02
         4        10         2   9.3043625E+01   3.0040747E+02
         5        10         2   9.3043625E+01   7.5102058E+01
         6        10         2   9.3043625E+01   7.5101807E+01
         7        10         2   9.3043625E+01   7.5101936E+01
         1        11         2   9.8415848E+01   7.3455060E+02
         2        11         2   9.8415848E+01   7.3455072E+02
         3        11         2   9.8415848E+01   7.3455066E+02
         4        11         2   9.8415848E+01   2.8088100E+01
         5        11         2   9.8415848E+01   7.0220408E+00
         6        11         2   9.8415848E+01   9.7410370E+02
         7        11         2   9.8415848E+01   1.6235065E+02
         1        12         2   9.7732117E+01   7.1788312E+02
         2        12         2   9.7732117E+01   7.1788300E+02
         3        12         2   9.7732117E+01   7.1788300E+02
         4        12         2   9.7732117E+01   5.0777579E+02
         5        12         2   9.7732117E+01   1.2694396E+02
         6        12         2   9.7732117E+01   6.5385144E+02
         7        12         2   9.7732117E+01   1.5696993E+03
         1        15         3   1.0959886E+02   1.6854462E+02
         2        15         3   1.0959886E+02   1.2025835E+02
         3        15         3   1.0959886E+02   6.0129307E+01
         4        15         3   1.0959886E+02   2.6063739E+02
         5        15         3   1.0959886E+02   6.5159477E+01
         6        15         3   1.0959886E+02   6.5159477E+01
         7        15         3   1.0959886E+02   6.5159225E+01
         1        16         3   1.0894804E+02   5.2200702E+02
         2        16         3   1.0894804E+02   5.2200702E+02
         3        16         3   1.0894804E+02   5.2200714E+02
         4        16         3   1.0894804E+02   2.2033375E+01
         5        16         3   1.0894804E+02   5.5082493E+00
         6        16         3   1.0894804E+02   5.5083752E+00
         7        16         3   1.0894804E+02   9.0616565E+02
         1        10        13   9.7157738E+01   8.9186908E+02
         2        10        13   9.7157738E+01   8.9186896E+02
         3        10        13   9.7157738E+01   8.9186896E+02
         4        10        13   9.7157738E+01   9.7078644E+02
         5        10        13   9.7157738E+01   2.4269666E+02
         6        10        13   9.7157738E+01   2.0075471E+03
         7        10        13   9.7157738E+01   2.4632893E+03
         1        11        13   9.9121414E+01   7.8389948E+02
         2        11        13   9.9121414E+01   7.8389960E+02
         3        11        13   9.9121414E+01   7.8389972E+02
         4        11        13   9.9121414E+01   8.9501270E+02
         5        11        13   9.9121414E+01   2.2375313E+02
         6        11        13   9.9121414E+01   1.9765549E+03
         7        11        13   9.9121414E+01   2.3014272E+03
         1        12        13   1.0119335E+02   6.7205811E+02
         2        12        13   1.0119335E+02   6.7205811E+02
         3        12        13   1.0119335E+02   6.7205811E+02
         4        12        13   1.0119335E+02   9.9080573E+02
         5        12        13   1.0119335E+02   2.4770149E+02
         6        12        13   1.0119335E+02   5.6775128E+02
         7        12        13   1.0119335E+02   1.7165758E+03
         1        15        14   1.0499576E+02   8.7220288E+02
         2        15        14   1.0499576E+02   8.7220288E+02
         3        15        14   1.0499576E+02   8.7220300E+02
         4        15        14   1.0499576E+02   1.6201793E+02
         5        15        14   1.0499576E+02   4.0504517E+01
         6        15        14   1.0499576E+02   3.6957666E+02
         7        15        14   1.0499576E+02   1.4884348E+03
         1        17        15   1.0869572E+02   3.5823135E+02
         2        17        15   1.0869572E+02   3.5823108E+02
         3        17        15   1.0869572E+02   3.5823135E+02
         4        17        15   1.0869572E+02   4.1565125E+02
         5        17        15   1.0869572E+02   1.0391287E+02
         6        17        15   1.0869572E+02   1.0391287E+02
         7        17        15   1.0869572E+02   1.0391274E+02
         1        18        15   1.2045681E+02   4.8642853E+02
         2        18        15   1.2045681E+02   4.8642853E+02
         3        18        15   1.2045681E+02   4.8642880E+02
         4        18        15   1.2045681E+02   4.8642841E+02
         5        18        15   1.2045681E+02   4.8642865E+02
         6        18        15   1.2045681E+02   4.8642853E+02
         7        18        15   1.2045681E+02   4.8642853E+02
