# RCH for MODFLOW, generated by Flopy.
         3        53
         1        -1 # Stress period 1
INTERNAL               1  (16E15.6) -1 #rech_1                        
   1.163836E-03   1.163836E-06   1.163836E-06   1.163836E-03   1.163836E-03   1.163836E-03   1.163836E-03   1.163836E-03   1.163836E-03   1.163836E-03   1.163836E-03   1.163836E-03   1.163836E-03   1.163836E-03   1.163836E-03   1.163836E-03
   1.163836E-03   1.163836E-06   1.163836E-06   1.163836E-03   1.163836E-03   1.163836E-03   1.163836E-03   1.163836E-03   1.163836E-03   1.163836E-03   1.163836E-03   1.163836E-03   1.163836E-03   1.163836E-03   1.163836E-03   1.163836E-03
   1.163836E-03   1.163836E-06   1.163836E-06   1.163836E-06   1.163836E-03   1.163836E-03   1.163836E-03   1.163836E-03   1.163836E-03   1.163836E-03   1.163836E-03   1.163836E-03   1.163836E-03   1.163836E-03   1.163836E-03   1.163836E-03
   1.163836E-03   1.163836E-06   1.163836E-06   1.163836E-06   1.163836E-03   1.163836E-03   1.163836E-03   1.163836E-03   1.163836E-03   1.163836E-03   1.163836E-03   1.163836E-03   1.163836E-03   1.163836E-03   1.163836E-03   1.163836E-03
   1.163836E-03   1.163836E-06   1.163836E-06   1.163836E-06   1.163836E-06   1.163836E-06   1.163836E-03   1.163836E-03   1.163836E-03   1.163836E-03   1.163836E-03   1.163836E-03   1.163836E-03   1.163836E-03   1.163836E-03   1.163836E-03
   1.163836E-06   1.163836E-06   1.163836E-06   1.163836E-06   1.163836E-06   1.163836E-06   1.163836E-03   1.163836E-03   1.163836E-03   1.163836E-03   1.163836E-03   1.163836E-03   1.163836E-03   1.163836E-03   1.163836E-03   1.163836E-03
   1.163836E-06   1.163836E-06   1.163836E-06   1.163836E-06   1.163836E-06   1.163836E-06   1.163836E-06   1.163836E-06   1.163836E-03   1.163836E-03   1.163836E-03   1.163836E-03   1.163836E-03   1.163836E-03   1.163836E-03   1.163836E-03
   1.163836E-07   1.163836E-06   1.163836E-06   1.163836E-06   1.163836E-06   1.163836E-06   1.163836E-06   1.163836E-06   1.163836E-06   1.163836E-06   1.163836E-03   1.163836E-03   1.163836E-03   1.163836E-03   1.163836E-03   1.163836E-03
   1.163836E-03   1.163836E-06   1.163836E-06   1.163836E-06   1.163836E-06   1.163836E-06   1.163836E-06   1.163836E-06   1.163836E-06   1.163836E-06   1.163836E-06   1.163836E-03   1.163836E-03   1.163836E-03   1.163836E-03   1.163836E-03
   1.203900E-03   1.203900E-06   1.163836E-06   1.163836E-06   1.163836E-06   1.163836E-06   1.163836E-06   1.163836E-06   1.163836E-06   1.163836E-06   1.163836E-06   1.163836E-06   1.163836E-06   1.163836E-03   1.163836E-03   1.163836E-03
   1.268420E-03   1.203900E-06   1.203900E-06   1.203900E-06   1.203900E-06   1.203900E-06   1.203900E-06   1.163836E-06   1.163836E-06   1.163836E-06   1.163836E-06   1.163836E-06   1.163836E-06   1.163836E-03   1.163836E-03   1.163836E-03
   1.268420E-03   1.268420E-06   1.268420E-06   1.203900E-06   1.203900E-06   1.203900E-06   1.203900E-06   1.203900E-06   1.203900E-06   1.203900E-06   1.203900E-06   1.203900E-06   1.163836E-06   1.163836E-03   1.163836E-03   1.163836E-03
   1.268420E-03   1.268420E-03   1.268420E-06   1.268420E-06   1.268420E-06   1.203900E-06   1.203900E-06   1.203900E-06   1.203900E-06   1.203900E-06   1.203900E-06   1.203900E-06   1.203900E-06   1.203900E-03   1.203900E-03   1.203900E-03
   1.268420E-03   1.268420E-03   1.268420E-06   1.268420E-06   1.268420E-06   1.268420E-06   1.203900E-06   1.203900E-06   1.203900E-06   1.203900E-06   1.203900E-06   1.203900E-06   1.203900E-06   1.203900E-03   1.203900E-03   1.203900E-03
   1.268420E-03   1.268420E-03   1.268420E-06   1.268420E-06   1.268420E-06   1.268420E-06   1.268420E-06   1.268420E-06   1.203900E-06   1.203900E-06   1.203900E-07   1.203900E-06   1.203900E-06   1.203900E-06   1.203900E-03   1.203900E-03
   1.268420E-03   1.268420E-03   1.268420E-06   1.268420E-06   1.268420E-06   1.268420E-06   1.268420E-06   1.268420E-06   1.268420E-06   1.268420E-06   1.203900E-06   1.203900E-06   1.203900E-06   1.203900E-06   1.203900E-03   1.203900E-03
   1.268420E-03   1.268420E-03   1.268420E-03   1.268420E-07   1.268420E-07   1.268420E-06   1.268420E-06   1.268420E-06   1.268420E-06   1.268420E-07   1.268420E-07   1.203900E-06   1.203900E-06   1.203900E-06   1.203900E-06   1.203900E-03
   1.268420E-03   1.268420E-03   1.268420E-03   1.268420E-07   1.268420E-06   1.268420E-07   1.268420E-06   1.268420E-06   1.268420E-06   1.268420E-06   1.268420E-07   1.268420E-06   1.268420E-06   1.203900E-07   1.203900E-07   1.203900E-03
   1.268420E-03   1.268420E-03   1.268420E-07   1.268420E-07   1.268420E-07   1.268420E-07   1.268420E-06   1.268420E-06   1.268420E-06   1.268420E-07   1.268420E-06   1.268420E-06   1.268420E-06   1.268420E-06   1.268420E-07   1.203900E-03
   1.419291E-03   1.419291E-03   1.268420E-07   1.268420E-06   1.268420E-06   1.268420E-06   1.268420E-06   1.268420E-06   1.268420E-06   1.268420E-06   1.268420E-06   1.268420E-06   1.268420E-06   0.000000E+00   1.268420E-07   1.268420E-03
   1.419291E-03   1.419291E-03   1.419291E-06   1.419291E-07   1.419291E-07   1.419291E-07   1.419291E-06   1.419291E-07   1.268420E-07   1.268420E-07   1.268420E-06   1.268420E-06   1.268420E-06   1.268420E-07   1.268420E-03   1.268420E-03
   1.419291E-03   1.419291E-07   1.419291E-06   1.419291E-07   1.419291E-07   1.419291E-07   1.419291E-06   1.419291E-07   1.419291E-07   1.419291E-07   1.419291E-07   1.419291E-06   1.419291E-07   1.419291E-07   1.419291E-03   1.268420E-03
   1.419291E-03   1.419291E-07   1.419291E-07   1.419291E-07   1.419291E-07   1.419291E-07   0.000000E+00   0.000000E+00   1.419291E-07   1.419291E-07   1.419291E-06   1.419291E-07   1.419291E-03   1.419291E-03   1.419291E-03   1.419291E-03
   1.419291E-03   1.419291E-07   1.419291E-07   0.000000E+00   1.419291E-07   1.419291E-07   1.419291E-07   1.419291E-06   1.419291E-07   1.419291E-07   1.419291E-07   1.419291E-03   1.419291E-03   1.419291E-03   1.419291E-03   1.419291E-03
   1.419291E-03   1.419291E-07   1.419291E-07   1.419291E-07   1.419291E-07   1.419291E-07   1.419291E-03   1.419291E-03   1.419291E-03   1.419291E-07   1.419291E-07   1.419291E-03   1.419291E-03   1.419291E-03   1.419291E-03   1.419291E-03
   1.419291E-03   1.419291E-03   1.419291E-07   1.419291E-03   1.419291E-07   1.419291E-07   1.419291E-03   1.419291E-03   1.419291E-03   1.419291E-03   1.419291E-03   1.419291E-03   1.419291E-03   1.419291E-03   1.419291E-03   1.419291E-03
   1.419291E-03   1.419291E-03   1.419291E-07   1.419291E-03   1.419291E-03   1.419291E-03   1.419291E-03   1.419291E-03   1.419291E-03   1.419291E-03   1.419291E-03   1.419291E-03   1.419291E-03   1.419291E-03   1.419291E-03   1.419291E-03
   1.419291E-03   1.419291E-03   1.419291E-03   1.419291E-03   1.419291E-03   1.419291E-03   1.419291E-03   1.419291E-03   1.419291E-03   1.419291E-03   1.419291E-03   1.419291E-03   1.419291E-03   1.419291E-03   1.419291E-03   1.419291E-03
