# RIV for MODFLOW, generated by Flopy.
       206        53
       206         0 # stress period 0
         1       116        30   1.5155580E+02   1.6029350E+02   1.5145580E+02
         1       110        31   1.7800449E+02   3.2400766E+02   1.7790448E+02
         1       111        31   1.5856526E+02   2.1848067E+02   1.5846526E+02
         1       113        31   1.6115646E+02   2.6229495E+02   1.6105646E+02
         1       114        31   1.7305434E+02   5.1441260E+02   1.7295433E+02
         1       115        31   1.4719250E+02   5.7761566E+02   1.4709250E+02
         1       116        31   1.5998743E+02   7.8219415E+02   1.5988742E+02
         1       117        31   1.8539723E+02   1.0391394E+02   1.8529723E+02
         1       118        31   1.6131636E+02   1.5329440E+02   1.6121635E+02
         1       101        32   1.3836028E+02   6.7498956E+02   1.3826027E+02
         1       102        32   1.4591821E+02   2.5014429E+02   1.4581821E+02
         1       104        32   1.5096237E+02   1.5234837E+02   1.5086237E+02
         1       105        32   1.5043401E+02   5.9898633E+02   1.5033400E+02
         1       106        32   1.4838773E+02   6.0374829E+02   1.4828772E+02
         1       107        32   1.6045491E+02   5.7528748E+02   1.6035490E+02
         1       108        32   1.6002870E+02   5.7538501E+02   1.5992870E+02
         1       109        32   1.6690273E+02   5.5510321E+02   1.6680272E+02
         1       110        32   1.6851540E+02   2.2356543E+02   1.6841539E+02
         1       111        32   1.6664143E+02   3.8767593E+02   1.6654143E+02
         1       112        32   1.6406461E+02   5.6528821E+02   1.6396460E+02
         1       113        32   1.8100343E+02   4.8432159E+02   1.8090343E+02
         1       116        32   1.9068889E+02   1.0452751E+02   1.9058888E+02
         1       117        32   1.7832338E+02   4.7724695E+02   1.7822337E+02
         1       118        32   1.6796205E+02   6.2282233E+02   1.6786205E+02
         1       119        32   1.9998985E+02   1.4178404E+02   1.9988985E+02
         1        99        33   1.5305177E+02   9.7778557E+01   1.5295177E+02
         1       100        33   1.4291837E+02   6.9755499E+02   1.4281836E+02
         1       101        33   1.4807372E+02   1.4615607E+02   1.4797371E+02
         1       102        33   1.5442308E+02   3.1428735E+02   1.5432307E+02
         1       103        33   1.5474025E+02   5.2738110E+02   1.5464024E+02
         1       104        33   1.5777301E+02   6.7199384E+02   1.5767300E+02
         1       119        33   1.7175949E+02   5.0219693E+02   1.7165948E+02
         1       120        33   1.7025894E+02   5.4615552E+02   1.7015894E+02
         1       121        33   1.6698764E+02   7.3059808E+02   1.6688763E+02
         1        97        34   1.4926738E+02   1.5884941E+02   1.4916737E+02
         1        98        34   1.3516484E+02   5.3900189E+02   1.3506483E+02
         1        99        34   1.4949002E+02   6.0589447E+02   1.4939001E+02
         1        95        35   1.4612299E+02   1.4791437E+02   1.4602298E+02
         1        96        35   1.3644577E+02   6.4937537E+02   1.3634576E+02
         1        97        35   1.3667882E+02   6.0484778E+02   1.3657881E+02
         1        95        36   1.3306662E+02   7.0233405E+02   1.3296661E+02
         1        96        36   1.4286336E+02   1.1847525E+02   1.4276335E+02
         1        89        37   1.3231441E+02   2.1386873E+02   1.3221440E+02
         1        90        37   1.3358801E+02   2.4438637E+02   1.3348801E+02
         1        92        37   1.3595573E+02   4.1569119E+02   1.3585573E+02
         1        93        37   1.3476915E+02   3.2667020E+02   1.3466914E+02
         1        94        37   1.3062486E+02   8.6456885E+02   1.3052486E+02
         1        95        37   1.3420653E+02   4.8271187E+01   1.3410652E+02
         1        89        38   1.3099260E+02   5.5639844E+02   1.3089259E+02
         1        90        38   1.3356833E+02   4.5722955E+02   1.3346832E+02
         1        91        38   1.3056818E+02   5.7673254E+02   1.3046817E+02
         1        92        38   1.3517046E+02   5.4170911E+02   1.3507045E+02
         1        93        38   1.3383470E+02   3.0254834E+02   1.3373470E+02
         1        94        38   1.4038612E+02   8.8024765E+01   1.4028612E+02
         1        82        39   1.3004912E+02   7.3271713E+01   1.2994911E+02
         1        83        39   1.2733370E+02   3.4491635E+02   1.2723370E+02
         1        84        39   1.3033107E+02   2.3873372E+02   1.3023106E+02
         1        85        39   1.3099094E+02   3.3592056E+02   1.3089093E+02
         1        86        39   1.2750593E+02   5.1785004E+02   1.2740593E+02
         1        88        39   1.2698927E+02   6.7096295E+02   1.2688927E+02
         1        89        39   1.2960309E+02   8.7517682E+02   1.2950308E+02
         1        80        40   1.2646178E+02   1.5141083E+02   1.2636179E+02
         1        81        40   1.2783395E+02   7.3337531E+02   1.2773395E+02
         1        82        40   1.2408255E+02   8.8867389E+02   1.2398255E+02
         1        83        40   1.2514886E+02   8.0694678E+02   1.2504886E+02
         1        84        40   1.2749197E+02   5.9564392E+02   1.2739198E+02
         1        85        40   1.2782247E+02   6.3011096E+02   1.2772247E+02
         1        86        40   1.2637385E+02   6.3164130E+02   1.2627385E+02
         1        87        40   1.3015724E+02   7.1523169E+02   1.3005724E+02
         1        88        40   1.3007274E+02   1.9113145E+02   1.2997273E+02
         1        89        40   1.3923874E+02   1.0339962E+02   1.3913873E+02
         1        80        41   1.2836668E+02   5.2246259E+02   1.2826668E+02
         1        81        41   1.2704539E+02   1.9924457E+02   1.2694539E+02
         1        82        41   1.2911864E+02   2.0210341E+02   1.2901863E+02
         1        85        41   1.3518254E+02   1.6382753E+02   1.3508253E+02
         1        86        41   1.3192123E+02   2.7842215E+02   1.3182123E+02
         1        80        42   1.2460627E+02   6.9126086E+02   1.2450627E+02
         1        79        43   1.2142148E+02   6.0791907E+02   1.2132148E+02
         1        80        43   1.2372594E+02   5.3648560E+02   1.2362594E+02
         1        73        44   1.2159943E+02   6.3700763E+02   1.2149944E+02
         1        74        44   1.2069640E+02   4.3235095E+02   1.2059641E+02
         1        75        44   1.1798967E+02   7.2802795E+02   1.1788967E+02
         1        76        44   1.2357899E+02   7.8683826E+02   1.2347899E+02
         1        77        44   1.2153613E+02   3.7738245E+02   1.2143613E+02
         1        78        44   1.2275034E+02   7.7387329E+02   1.2265034E+02
         1        79        44   1.2478709E+02   1.2328635E+02   1.2468709E+02
         1        72        45   1.2052013E+02   6.4265790E+02   1.2042014E+02
         1        73        45   1.2023728E+02   3.3156499E-01   1.2013728E+02
         1        74        45   1.2019587E+02   6.1651697E+02   1.2009587E+02
         1        76        45   1.2322608E+02   1.6150620E+02   1.2312608E+02
         1        77        45   1.2487373E+02   3.0421564E+02   1.2477373E+02
         1        78        45   1.2235110E+02   3.2486438E+02   1.2225110E+02
         1        61        46   1.1056535E+02   5.9156122E+02   1.1046535E+02
         1        62        46   1.1113766E+02   7.9865894E+02   1.1103766E+02
         1        63        46   1.0954468E+02   3.9476508E+02   1.0944468E+02
         1        72        46   1.2044438E+02   8.1968524E+02   1.2034438E+02
         1        57        47   1.0496380E+02   2.3012346E+02   1.0486380E+02
         1        58        47   1.0853794E+02   6.8934076E+02   1.0843794E+02
         1        59        47   1.0843121E+02   8.3806665E+02   1.0833121E+02
         1        60        47   1.0849111E+02   5.8412134E+02   1.0839111E+02
         1        61        47   1.1015668E+02   8.1997247E+02   1.1005668E+02
         1        63        47   1.1078846E+02   5.3232568E+02   1.1068846E+02
         1        64        47   1.0991608E+02   6.9048535E+02   1.0981609E+02
         1        65        47   1.1153423E+02   5.7157233E+02   1.1143423E+02
         1        66        47   1.1144152E+02   5.2111694E+02   1.1134152E+02
         1        67        47   1.1489920E+02   6.3131354E+02   1.1479920E+02
         1        68        47   1.1711546E+02   5.7722821E+02   1.1701546E+02
         1        69        47   1.1521407E+02   3.7020508E+02   1.1511407E+02
         1        70        47   1.1647713E+02   6.8465460E+02   1.1637714E+02
         1        71        47   1.1607150E+02   7.3374628E+02   1.1597150E+02
         1        72        47   1.1863054E+02   1.9643399E+02   1.1853054E+02
         1        57        48   1.0715212E+02   8.6644385E+02   1.0705212E+02
         1        66        48   1.1342756E+02   1.8435619E+02   1.1332756E+02
         1        69        48   1.1628755E+02   3.3740689E+02   1.1618755E+02
         1        70        48   1.1704304E+02   2.3498950E+02   1.1694304E+02
         1        41        49   9.2169090E+01   2.5031525E+02   9.2069092E+01
         1        43        49   9.6598091E+01   1.0315063E+02   9.6498093E+01
         1        56        49   1.0580531E+02   8.1676184E+02   1.0570531E+02
         1        57        49   1.0618656E+02   4.8591577E+02   1.0608656E+02
         1        40        50   9.6106506E+01   4.8024756E+02   9.6006508E+01
         1        41        50   9.3590393E+01   8.7969922E+02   9.3490395E+01
         1        42        50   9.4098389E+01   8.0105835E+02   9.3998390E+01
         1        43        50   9.3751167E+01   1.1368711E+03   9.3651169E+01
         1        44        50   9.6586411E+01   5.0306921E+02   9.6486412E+01
         1        46        50   9.8377251E+01   3.4022955E+02   9.8277252E+01
         1        47        50   9.3070908E+01   8.7286414E+02   9.2970909E+01
         1        48        50   9.8027016E+01   2.6077631E+02   9.7927017E+01
         1        53        50   1.0234487E+02   7.0870949E+01   1.0224487E+02
         1        54        50   1.0390861E+02   3.4454431E+02   1.0380861E+02
         1        55        50   1.0453613E+02   7.1771063E+02   1.0443613E+02
         1        56        50   1.0568830E+02   3.2951089E+02   1.0558830E+02
         1        43        51   9.7438400E+01   7.2790321E+01   9.7338402E+01
         1        44        51   9.2908516E+01   7.1498926E+02   9.2808517E+01
         1        45        51   9.2637993E+01   7.0992126E+02   9.2537994E+01
         1        46        51   9.4585686E+01   7.3610297E+02   9.4485687E+01
         1        48        51   9.8535271E+01   6.6080084E+02   9.8435272E+01
         1        49        51   9.5929375E+01   1.0509204E+03   9.5829376E+01
         1        50        51   9.9990158E+01   7.5986914E+02   9.9890160E+01
         1        51        51   1.0083089E+02   7.8330725E+02   1.0073090E+02
         1        52        51   1.0062863E+02   1.0197832E+03   1.0052863E+02
         1        53        51   1.0253997E+02   1.0802728E+03   1.0243997E+02
         1        54        51   1.0275434E+02   7.8293042E+02   1.0265434E+02
         1        51        52   1.0055769E+02   1.4760135E+02   1.0045769E+02
         1         2        12   8.0514069E+01   7.3898401E+02   8.0414070E+01
         1         3        13   8.0974457E+01   3.4603928E+02   8.0874458E+01
         1         5        14   8.1187645E+01   1.2514137E+02   8.1087646E+01
         1         7        15   8.1495888E+01   4.2980762E+02   8.1395889E+01
         1         8        15   8.2411507E+01   5.3856494E+02   8.2311508E+01
         1         5        16   8.1549202E+01   8.2523914E+02   8.1449203E+01
         1         6        16   8.1951347E+01   6.0918060E+02   8.1851349E+01
         1         7        16   7.8837166E+01   1.3402871E+03   7.8737167E+01
         1         8        16   8.2353073E+01   1.3965356E+03   8.2253075E+01
         1        10        16   7.9668777E+01   7.5419250E+02   7.9568779E+01
         1        12        17   8.3198189E+01   5.2367493E+02   8.3098190E+01
         1        13        18   8.3231308E+01   1.1209203E+02   8.3131310E+01
         1        13        19   8.2606834E+01   1.0599292E+03   8.2506836E+01
         1        15        19   8.3953773E+01   7.6017798E+02   8.3853775E+01
         1        16        19   8.3158249E+01   3.9623505E+01   8.3058250E+01
         1        17        19   8.4117996E+01   4.2709821E+02   8.4017998E+01
         1        16        20   8.4129929E+01   1.2112686E+03   8.4029930E+01
         1        18        20   8.4562492E+01   4.1634604E+02   8.4462494E+01
         1        19        21   8.5019150E+01   3.4632727E+02   8.4919151E+01
         1        20        22   8.5055542E+01   4.6016428E+02   8.4955544E+01
         1        21        23   8.5303886E+01   3.2952765E+02   8.5203888E+01
         1        21        24   8.4737961E+01   9.2651697E+02   8.4637962E+01
         1        22        25   8.6209976E+01   5.2629266E+02   8.6109978E+01
         1        23        26   8.6516319E+01   5.5302338E+02   8.6416321E+01
         1        24        27   8.6678429E+01   7.1485028E+02   8.6578430E+01
         1        24        29   8.3721382E+01   1.3217576E+03   8.3621384E+01
         1        25        29   8.5340446E+01   6.4908533E+02   8.5240448E+01
         1        26        29   8.7115166E+01   6.6427484E+02   8.7015167E+01
         1        27        29   9.0328392E+01   3.3815005E+02   9.0228394E+01
         1        28        31   8.8016373E+01   1.2879045E+02   8.7916374E+01
         1        28        32   8.9049744E+01   7.6444250E+02   8.8949745E+01
         1        29        33   8.3131851E+01   5.7933191E+02   8.3031853E+01
         1        30        34   8.8439301E+01   3.4612241E+02   8.8339302E+01
         1        30        35   8.8236664E+01   6.3475610E+02   8.8136665E+01
         1        31        35   8.9539696E+01   1.7936975E+02   8.9439697E+01
         1        32        35   9.0015038E+01   2.1874418E+01   8.9915039E+01
         1        32        36   9.0218315E+01   7.9484637E+02   9.0118317E+01
         1        32        37   8.9410408E+01   7.5254987E+02   8.9310410E+01
         1        32        38   9.0722191E+01   9.6478595E+02   9.0622192E+01
         1        33        38   9.1150215E+01   4.2016309E+02   9.1050217E+01
         1        34        38   9.1111794E+01   5.2595758E+02   9.1011795E+01
         1        35        38   9.2982201E+01   8.0450171E+02   9.2882202E+01
         1        36        38   9.3518730E+01   1.0581939E+01   9.3418732E+01
         1        34        39   8.8920921E+01   1.1392318E+03   8.8820923E+01
         1        36        39   9.5240845E+01   5.0363339E+02   9.5140846E+01
         1        33        40   9.0522552E+01   6.4119751E+02   9.0422554E+01
         1        34        40   9.0771736E+01   2.7017871E+02   9.0671738E+01
         1        35        40   9.3887222E+01   1.1865491E+02   9.3787224E+01
         1        34        41   9.4195007E+01   8.2322433E+01   9.4095009E+01
         1        36        42   9.5129562E+01   1.7041290E+02   9.5029564E+01
         1        36        43   9.4218224E+01   3.6810898E+02   9.4118225E+01
         1        35        44   9.1487892E+01   6.0631433E+02   9.1387894E+01
         1        34        45   9.0175621E+01   6.9367847E+02   9.0075623E+01
         1        35        45   9.1997513E+01   7.4516284E+02   9.1897514E+01
         1        38        45   9.5839600E+01   4.5500812E+02   9.5739601E+01
         1        37        46   8.9985847E+01   9.7620502E+02   8.9885849E+01
         1        38        46   9.3471802E+01   6.4652786E+01   9.3371803E+01
         1        38        48   9.2493874E+01   6.8777637E+02   9.2393875E+01
         1        40        48   9.1655899E+01   4.6054062E+02   9.1555901E+01
         1        40        50   9.6106506E+01   4.1396964E+02   9.6006508E+01
         1        41        51   9.5257484E+01   3.1206702E+02   9.5157486E+01
         1        41        55   9.4997879E+01   5.0028091E+01   9.4897881E+01
         1        41        56   9.5110939E+01   3.2041867E+02   9.5010941E+01
