# Well file for MODFLOW, generated by Flopy.
        27        53
        27         0 # stress period 0
         5        39        20   0.0000000E+00
         4        39        20   0.0000000E+00
         2        39        20   0.0000000E+00
         2        97        23   0.0000000E+00
         6        25        25   0.0000000E+00
         4        25        25   0.0000000E+00
         2        25        25   0.0000000E+00
         2        25        25   0.0000000E+00
         4        49        32   0.0000000E+00
         6        99        33   0.0000000E+00
         4        99        33   0.0000000E+00
         6        85        38   0.0000000E+00
         1        85        38   0.0000000E+00
         6        56        41   0.0000000E+00
         4        56        48   0.0000000E+00
         4        50        49   0.0000000E+00
         2        50        49   0.0000000E+00
         6        55        57   0.0000000E+00
         1        55        57   0.0000000E+00
         3        81        59   0.0000000E+00
         7        85        62   0.0000000E+00
         3        66        66   0.0000000E+00
         1        66        66   0.0000000E+00
         3        80        66   0.0000000E+00
         1        80        66   0.0000000E+00
         7        74        69   0.0000000E+00
         1        74        69   0.0000000E+00
