# GHB for MODFLOW, generated by Flopy.
       441        53
       441         0 # stress period 0
         1         2        12   8.0534073E+01   1.2164177E+02
         2         2        12   8.0534073E+01   1.2164177E+02
         3         2        12   8.0534073E+01   1.2164178E+02
         4         2        12   8.0534073E+01   1.0102706E+02
         5         2        12   8.0534073E+01   2.5256767E+01
         6         2        12   8.0534073E+01   7.8524969E+02
         7         2        12   8.0534073E+01   5.0000000E+01
         1         3        13   8.0994461E+01   1.6249352E+01
         2         3        13   8.0994461E+01   2.2719420E+02
         3         3        13   8.0994461E+01   1.1359709E+02
         4         3        13   8.0994461E+01   1.1726586E+02
         5         3        13   8.0994461E+01   2.9316463E+01
         6         3        13   8.0994461E+01   7.9882147E+02
         7         3        13   8.0994461E+01   5.0000000E+01
         1         5        14   8.1207649E+01   1.5000000E+01
         2         5        14   8.1207649E+01   2.1875345E+02
         3         5        14   8.1207649E+01   1.0937675E+02
         4         5        14   8.1207649E+01   1.4525308E+02
         5         5        14   8.1207649E+01   3.6313267E+01
         6         5        14   8.1207649E+01   7.6183490E+02
         7         5        14   8.1207649E+01   5.0000000E+01
         1         7        15   8.1515892E+01   2.5895309E+01
         2         7        15   8.1515892E+01   2.1615211E+02
         3         7        15   8.1515892E+01   1.0807605E+02
         4         7        15   8.1515892E+01   1.6389975E+02
         5         7        15   8.1515892E+01   4.0974941E+01
         6         7        15   8.1515892E+01   7.0550500E+02
         7         7        15   8.1515892E+01   5.0000000E+01
         1         8        15   8.2431511E+01   3.7179718E+01
         2         8        15   8.2431511E+01   2.1614946E+02
         3         8        15   8.2431511E+01   1.0807473E+02
         4         8        15   8.2431511E+01   1.6194287E+02
         5         8        15   8.2431511E+01   4.0485733E+01
         6         8        15   8.2431511E+01   6.8357385E+02
         7         8        15   8.2431511E+01   4.9906622E+02
         1         5        16   8.1569206E+01   1.1774094E+02
         2         5        16   8.1569206E+01   1.1774092E+02
         3         5        16   8.1569206E+01   1.1774093E+02
         4         5        16   8.1569206E+01   1.5369324E+02
         5         5        16   8.1569206E+01   3.8423302E+01
         6         5        16   8.1569206E+01   7.8197522E+02
         7         5        16   8.1569206E+01   5.0000000E+01
         1         6        16   8.1971352E+01   1.1898922E+02
         2         6        16   8.1971352E+01   1.1898922E+02
         3         6        16   8.1971352E+01   1.1898923E+02
         4         6        16   8.1971352E+01   1.5933795E+02
         5         6        16   8.1971352E+01   3.9834488E+01
         6         6        16   8.1971352E+01   7.4669568E+02
         7         6        16   8.1971352E+01   5.0000000E+01
         1         7        16   7.8857170E+01   1.1487289E+02
         2         7        16   7.8857170E+01   1.1487289E+02
         3         7        16   7.8857170E+01   1.1487290E+02
         4         7        16   7.8857170E+01   1.5988028E+02
         5         7        16   7.8857170E+01   3.9970074E+01
         6         7        16   7.8857170E+01   7.1325916E+02
         7         7        16   7.8857170E+01   5.0000000E+01
         1         8        16   8.2373077E+01   1.2289032E+02
         2         8        16   8.2373077E+01   1.2289030E+02
         3         8        16   8.2373077E+01   1.2289031E+02
         4         8        16   8.2373077E+01   1.5844923E+02
         5         8        16   8.2373077E+01   3.9612312E+01
         6         8        16   8.2373077E+01   6.8667700E+02
         7         8        16   8.2373077E+01   5.0000000E+01
         1        10        16   7.9688782E+01   1.2380726E+02
         2        10        16   7.9688782E+01   1.2380728E+02
         3        10        16   7.9688782E+01   1.2380729E+02
         4        10        16   7.9688782E+01   1.5919846E+02
         5        10        16   7.9688782E+01   3.9799606E+01
         6        10        16   7.9688782E+01   6.1861975E+02
         7        10        16   7.9688782E+01   4.7805426E+02
         1        12        17   8.3218193E+01   3.9268494E+01
         2        12        17   8.3218193E+01   2.4732918E+02
         3        12        17   8.3218193E+01   1.2366458E+02
         4        12        17   8.3218193E+01   1.5842140E+02
         5        12        17   8.3218193E+01   3.9605362E+01
         6        12        17   8.3218193E+01   5.3738434E+02
         7        12        17   8.3218193E+01   4.6244238E+02
         1        13        18   8.3251312E+01   3.7748909E+01
         2        13        18   8.3251312E+01   2.5749121E+02
         3        13        18   8.3251312E+01   1.2874559E+02
         4        13        18   8.3251312E+01   1.5193787E+02
         5        13        18   8.3251312E+01   3.7984467E+01
         6        13        18   8.3251312E+01   4.8723190E+02
         7        13        18   8.3251312E+01   4.4641037E+02
         1        13        19   8.2626839E+01   3.8084183E+01
         2        13        19   8.2626839E+01   2.6313672E+02
         3        13        19   8.2626839E+01   1.3156836E+02
         4        13        19   8.2626839E+01   1.4435385E+02
         5        13        19   8.2626839E+01   3.6088467E+01
         6        13        19   8.2626839E+01   4.9301947E+02
         7        13        19   8.2626839E+01   4.4825037E+02
         1        15        19   8.3973778E+01   4.4238663E+01
         2        15        19   8.3973778E+01   2.8168524E+02
         3        15        19   8.3973778E+01   1.4084262E+02
         4        15        19   8.3973778E+01   1.2085340E+02
         5        15        19   8.3973778E+01   3.0213356E+01
         6        15        19   8.3973778E+01   4.0937054E+02
         7        15        19   8.3973778E+01   4.1979340E+02
         1        16        19   8.3178253E+01   3.8650703E+01
         2        16        19   8.3178253E+01   2.8990173E+02
         3        16        19   8.3178253E+01   1.4495085E+02
         4        16        19   8.3178253E+01   1.0984679E+02
         5        16        19   8.3178253E+01   2.7461681E+01
         6        16        19   8.3178253E+01   3.7719302E+02
         7        16        19   8.3178253E+01   4.0568173E+02
         1        17        19   8.4138000E+01   4.3737488E+01
         2        17        19   8.4138000E+01   2.9896127E+02
         3        17        19   8.4138000E+01   1.4948067E+02
         4        17        19   8.4138000E+01   9.6732048E+01
         5        17        19   8.4138000E+01   2.4183006E+01
         6        17        19   8.4138000E+01   3.4667804E+02
         7        17        19   8.4138000E+01   3.9551813E+02
         1        16        20   8.4149933E+01   1.6348703E+02
         2        16        20   8.4149933E+01   1.6348703E+02
         3        16        20   8.4149933E+01   1.6348705E+02
         4        16        20   8.4149933E+01   1.0585311E+02
         5        16        20   8.4149933E+01   2.6463280E+01
         6        16        20   8.4149933E+01   3.9170694E+02
         7        16        20   8.4149933E+01   4.1521439E+02
         1        18        20   8.4582497E+01   1.7221834E+02
         2        18        20   8.4582497E+01   1.7221834E+02
         3        18        20   8.4582497E+01   1.7221834E+02
         4        18        20   8.4582497E+01   8.7874924E+01
         5        18        20   8.4582497E+01   2.1968727E+01
         6        18        20   8.4582497E+01   3.3567029E+02
         7        18        20   8.4582497E+01   3.9638086E+02
         1        19        21   8.5039154E+01   4.8635864E+01
         2        19        21   8.5039154E+01   3.2238330E+02
         3        19        21   8.5039154E+01   1.6119165E+02
         4        19        21   8.5039154E+01   9.8965134E+01
         5        19        21   8.5039154E+01   2.4741268E+01
         6        19        21   8.5039154E+01   3.2463824E+02
         7        19        21   8.5039154E+01   4.0299994E+02
         1        20        22   8.5075546E+01   4.8972282E+01
         2        20        22   8.5075546E+01   3.2967941E+02
         3        20        22   8.5075546E+01   1.6483972E+02
         4        20        22   8.5075546E+01   1.0689467E+02
         5        20        22   8.5075546E+01   2.6723671E+01
         6        20        22   8.5075546E+01   3.2593994E+02
         7        20        22   8.5075546E+01   4.1109790E+02
         1        21        23   8.5323891E+01   4.9641724E+01
         2        21        23   8.5323891E+01   3.3580624E+02
         3        21        23   8.5323891E+01   1.6790315E+02
         4        21        23   8.5323891E+01   1.1608485E+02
         5        21        23   8.5323891E+01   2.9021206E+01
         6        21        23   8.5323891E+01   3.2047842E+02
         7        21        23   8.5323891E+01   4.1681683E+02
         1        21        24   8.4757965E+01   1.8422958E+02
         2        21        24   8.4757965E+01   1.8422958E+02
         3        21        24   8.4757965E+01   1.8422960E+02
         4        21        24   8.4757965E+01   1.2436662E+02
         5        21        24   8.4757965E+01   3.1091652E+01
         6        21        24   8.4757965E+01   3.2701300E+02
         7        21        24   8.4757965E+01   4.2265765E+02
         1        22        25   8.6229980E+01   1.8730934E+02
         2        22        25   8.6229980E+01   1.8730934E+02
         3        22        25   8.6229980E+01   1.8730934E+02
         4        22        25   8.6229980E+01   1.3482355E+02
         5        22        25   8.6229980E+01   3.3705883E+01
         6        22        25   8.6229980E+01   3.0854907E+02
         7        22        25   8.6229980E+01   4.2404236E+02
         1        23        26   8.6536324E+01   1.8456900E+02
         2        23        26   8.6536324E+01   1.8456900E+02
         3        23        26   8.6536324E+01   1.8456897E+02
         4        23        26   8.6536324E+01   1.4514569E+02
         5        23        26   8.6536324E+01   3.6286411E+01
         6        23        26   8.6536324E+01   2.7904840E+02
         7        23        26   8.6536324E+01   4.1510748E+02
         1        24        27   8.6698433E+01   1.7700644E+02
         2        24        27   8.6698433E+01   1.7700644E+02
         3        24        27   8.6698433E+01   1.7700639E+02
         4        24        27   8.6698433E+01   1.6068788E+02
         5        24        27   8.6698433E+01   4.0171967E+01
         6        24        27   8.6698433E+01   2.1247490E+02
         7        24        27   8.6698433E+01   3.8996741E+02
         1        24        29   8.3741386E+01   1.6556877E+02
         2        24        29   8.3741386E+01   1.6556877E+02
         3        24        29   8.3741386E+01   1.6556876E+02
         4        24        29   8.3741386E+01   1.7316397E+02
         5        24        29   8.3741386E+01   4.3290997E+01
         6        24        29   8.3741386E+01   1.7156996E+02
         7        24        29   8.3741386E+01   3.6850327E+02
         1        25        29   8.5360451E+01   2.7255096E+01
         2        25        29   8.5360451E+01   3.0598380E+02
         3        25        29   8.5360451E+01   1.5299187E+02
         4        25        29   8.5360451E+01   1.7982973E+02
         5        25        29   8.5360451E+01   4.4957428E+01
         6        25        29   8.5360451E+01   9.4621162E+01
         7        25        29   8.5360451E+01   3.4003009E+02
         1        26        29   8.7135170E+01   3.5503159E+01
         2        26        29   8.7135170E+01   3.0227890E+02
         3        26        29   8.7135170E+01   1.5113943E+02
         4        26        29   8.7135170E+01   1.7676842E+02
         5        26        29   8.7135170E+01   4.4192104E+01
         6        26        29   8.7135170E+01   1.5024204E+01
         7        26        29   8.7135170E+01   3.1096625E+02
         1        27        29   9.0348396E+01   4.3219757E+01
         2        27        29   9.0348396E+01   3.0625037E+02
         3        27        29   9.0348396E+01   1.5312520E+02
         4        27        29   9.0348396E+01   1.3504431E+02
         5        27        29   9.0348396E+01   3.3761063E+01
         6        27        29   9.0348396E+01   2.5003220E+02
         7        27        29   9.0348396E+01   4.1672058E+01
         1        28        31   8.8036377E+01   3.1561813E+01
         2        28        31   8.8036377E+01   3.0570673E+02
         3        28        31   8.8036377E+01   1.5285336E+02
         4        28        31   8.8036377E+01   2.7512360E+01
         5        28        31   8.8036377E+01   6.8780899E+00
         6        28        31   8.8036377E+01   2.0470667E+02
         7        28        31   8.8036377E+01   3.4117775E+01
         1        28        32   8.9069748E+01   4.3933220E+01
         2        28        32   8.9069748E+01   3.0596124E+02
         3        28        32   8.9069748E+01   1.5298062E+02
         4        28        32   8.9069748E+01   1.1100788E+01
         5        28        32   8.9069748E+01   2.7751970E+00
         6        28        32   8.9069748E+01   2.0231175E+02
         7        28        32   8.9069748E+01   3.3718624E+01
         1        29        33   8.3151855E+01   1.3644971E+02
         2        29        33   8.3151855E+01   1.3644971E+02
         3        29        33   8.3151855E+01   1.3644969E+02
         4        29        33   8.3151855E+01   1.1278039E+02
         5        29        33   8.3151855E+01   2.8195095E+01
         6        29        33   8.3151855E+01   2.8195095E+01
         7        29        33   8.3151855E+01   2.8195095E+01
         1        30        34   8.8459305E+01   4.2638817E+01
         2        30        34   8.8459305E+01   2.4915457E+02
         3        30        34   8.8459305E+01   1.2457728E+02
         4        30        34   8.8459305E+01   1.1422483E+02
         5        30        34   8.8459305E+01   2.8556194E+01
         6        30        34   8.8459305E+01   2.8556213E+01
         7        30        34   8.8459305E+01   2.8556194E+01
         1        30        35   8.8256668E+01   1.5985989E+02
         2        30        35   8.8256668E+01   1.5985991E+02
         3        30        35   8.8256668E+01   1.5985991E+02
         4        30        35   8.8256668E+01   4.5777122E+01
         5        30        35   8.8256668E+01   1.1444283E+01
         6        30        35   8.8256668E+01   2.0849863E+02
         7        30        35   8.8256668E+01   3.4749775E+01
         1        31        35   8.9559700E+01   4.6880035E+01
         2        31        35   8.9559700E+01   2.7701562E+02
         3        31        35   8.9559700E+01   1.3850783E+02
         4        31        35   8.9559700E+01   6.4690910E+01
         5        31        35   8.9559700E+01   1.6172724E+01
         6        31        35   8.9559700E+01   2.1049387E+02
         7        31        35   8.9559700E+01   3.5082321E+01
         1        32        35   9.0035042E+01   3.0402298E+01
         2        32        35   9.0035042E+01   2.7753336E+02
         3        32        35   9.0035042E+01   1.3876671E+02
         4        32        35   9.0035042E+01   1.6273827E+02
         5        32        35   9.0035042E+01   4.0684566E+01
         6        32        35   9.0035042E+01   2.4346718E+02
         7        32        35   9.0035042E+01   4.0577888E+01
         1        32        36   9.0238319E+01   4.9490776E+01
         2        32        36   9.0238319E+01   2.5717572E+02
         3        32        36   9.0238319E+01   1.2858786E+02
         4        32        36   9.0238319E+01   2.5226976E+02
         5        32        36   9.0238319E+01   6.3067436E+01
         6        32        36   9.0238319E+01   2.7446826E+02
         7        32        36   9.0238319E+01   4.5744705E+01
         1        32        37   8.9430412E+01   3.9505386E+01
         2        32        37   8.9430412E+01   2.6353729E+02
         3        32        37   8.9430412E+01   1.3176865E+02
         4        32        37   8.9430412E+01   2.8983258E+02
         5        32        37   8.9430412E+01   7.2458153E+01
         6        32        37   8.9430412E+01   2.8882004E+02
         7        32        37   8.9430412E+01   4.8136673E+01
         1        32        38   9.0742195E+01   5.2906380E+01
         2        32        38   9.0742195E+01   2.6340863E+02
         3        32        38   9.0742195E+01   1.3170433E+02
         4        32        38   9.0742195E+01   3.0806729E+02
         5        32        38   9.0742195E+01   7.7016815E+01
         6        32        38   9.0742195E+01   3.0081546E+02
         7        32        38   9.0742195E+01   5.0023041E+01
         1        33        38   9.1170219E+01   2.4482117E+01
         2        33        38   9.1170219E+01   2.6401270E+02
         3        33        38   9.1170219E+01   1.3200635E+02
         4        33        38   9.1170219E+01   3.1367963E+02
         5        33        38   9.1170219E+01   7.8419891E+01
         6        33        38   9.1170219E+01   3.6318016E+01
         7        33        38   9.1170219E+01   3.5561072E+02
         1        34        38   9.1131798E+01   1.3055916E+02
         2        34        38   9.1131798E+01   1.3055914E+02
         3        34        38   9.1131798E+01   1.3055913E+02
         4        34        38   9.1131798E+01   2.7732443E+02
         5        34        38   9.1131798E+01   6.9331116E+01
         6        34        38   9.1131798E+01   1.1117639E+02
         7        34        38   9.1131798E+01   3.5582336E+02
         1        35        38   9.3002205E+01   1.2353302E+02
         2        35        38   9.3002205E+01   1.2353302E+02
         3        35        38   9.3002205E+01   1.2353304E+02
         4        35        38   9.3002205E+01   2.3548953E+02
         5        35        38   9.3002205E+01   5.8872395E+01
         6        35        38   9.3002205E+01   1.7380048E+02
         7        35        38   9.3002205E+01   3.5195416E+02
         1        36        38   9.3538734E+01   1.2006748E+02
         2        36        38   9.3538734E+01   1.2006748E+02
         3        36        38   9.3538734E+01   1.2006747E+02
         4        36        38   9.3538734E+01   1.8993527E+02
         5        36        38   9.3538734E+01   4.7483826E+01
         6        36        38   9.3538734E+01   2.1849580E+02
         7        36        38   9.3538734E+01   3.4380225E+02
         1        34        39   8.8940926E+01   1.2911552E+02
         2        34        39   8.8940926E+01   1.2911554E+02
         3        34        39   8.8940926E+01   1.2911555E+02
         4        34        39   8.8940926E+01   2.4948474E+02
         5        34        39   8.8940926E+01   6.2371178E+01
         6        34        39   8.8940926E+01   1.3956012E+02
         7        34        39   8.8940926E+01   3.5195459E+02
         1        36        39   9.5260849E+01   1.1870792E+02
         2        36        39   9.5260849E+01   1.1870792E+02
         3        36        39   9.5260849E+01   1.1870792E+02
         4        36        39   9.5260849E+01   1.5873953E+02
         5        36        39   9.5260849E+01   3.9684887E+01
         6        36        39   9.5260849E+01   2.5489636E+02
         7        36        39   9.5260849E+01   3.4140009E+02
         1        33        40   9.0542557E+01   5.8840179E+01
         2        33        40   9.0542557E+01   2.5880951E+02
         3        33        40   9.0542557E+01   1.2940474E+02
         4        33        40   9.0542557E+01   2.5433986E+02
         5        33        40   9.0542557E+01   6.3584976E+01
         6        33        40   9.0542557E+01   1.0696631E+02
         7        33        40   9.0542557E+01   3.6390042E+02
         1        34        40   9.0791740E+01   4.4143982E+01
         2        34        40   9.0791740E+01   2.4210197E+02
         3        34        40   9.0791740E+01   1.2105099E+02
         4        34        40   9.0791740E+01   2.2461470E+02
         5        34        40   9.0791740E+01   5.6153679E+01
         6        34        40   9.0791740E+01   1.6651724E+02
         7        34        40   9.0791740E+01   3.5764972E+02
         1        35        40   9.3907227E+01   1.2685917E+02
         2        35        40   9.3907227E+01   1.2685917E+02
         3        35        40   9.3907227E+01   1.2685917E+02
         4        35        40   9.3907227E+01   1.9112689E+02
         5        35        40   9.3907227E+01   4.7781715E+01
         6        35        40   9.3907227E+01   2.1888062E+02
         7        35        40   9.3907227E+01   3.5181207E+02
         1        34        41   9.4215012E+01   1.5439995E+02
         2        34        41   9.4215012E+01   1.5439995E+02
         3        34        41   9.4215012E+01   1.5439996E+02
         4        34        41   9.4215012E+01   2.0333514E+02
         5        34        41   9.4215012E+01   5.0833797E+01
         6        34        41   9.4215012E+01   1.6786157E+02
         7        34        41   9.4215012E+01   3.6868292E+02
         1        36        42   9.5149567E+01   1.6413989E+02
         2        36        42   9.5149567E+01   1.6413989E+02
         3        36        42   9.5149567E+01   1.6413989E+02
         4        36        42   9.5149567E+01   1.4936172E+02
         5        36        42   9.5149567E+01   3.7340431E+01
         6        36        42   9.5149567E+01   1.9657596E+02
         7        36        42   9.5149567E+01   3.6525122E+02
         1        36        43   9.4238228E+01   1.7520294E+02
         2        36        43   9.4238228E+01   1.7520294E+02
         3        36        43   9.4238228E+01   1.7520293E+02
         4        36        43   9.4238228E+01   1.4849367E+02
         5        36        43   9.4238228E+01   3.7123394E+01
         6        36        43   9.4238228E+01   1.7905939E+02
         7        36        43   9.4238228E+01   3.7140265E+02
         1        35        44   9.1507896E+01   1.6710954E+02
         2        35        44   9.1507896E+01   1.6710954E+02
         3        35        44   9.1507896E+01   1.6710959E+02
         4        35        44   9.1507896E+01   1.2417046E+02
         5        35        44   9.1507896E+01   3.1042614E+01
         6        35        44   9.1507896E+01   2.4880684E+02
         7        35        44   9.1507896E+01   3.7592554E+02
         1        34        45   9.0195625E+01   1.6444872E+02
         2        34        45   9.0195625E+01   1.6444872E+02
         3        34        45   9.0195625E+01   1.6444872E+02
         4        34        45   9.0195625E+01   1.0695770E+02
         5        34        45   9.0195625E+01   2.6739426E+01
         6        34        45   9.0195625E+01   3.0647012E+02
         7        34        45   9.0195625E+01   3.8606482E+02
         1        35        45   9.2017517E+01   3.4955826E+01
         2        35        45   9.2017517E+01   2.9858768E+02
         3        35        45   9.2017517E+01   1.4929385E+02
         4        35        45   9.2017517E+01   7.8315720E+01
         5        35        45   9.2017517E+01   1.9578934E+01
         6        35        45   9.2017517E+01   3.3783575E+02
         7        35        45   9.2017517E+01   3.8068445E+02
         1        38        45   9.5859604E+01   1.6245897E+02
         2        38        45   9.5859604E+01   1.6245897E+02
         3        38        45   9.5859604E+01   1.6245894E+02
         4        38        45   9.5859604E+01   7.4674362E+01
         5        38        45   9.5859604E+01   1.8668585E+01
         6        38        45   9.5859604E+01   3.8384793E+02
         7        38        45   9.5859604E+01   3.9724442E+02
         1        37        46   9.0005852E+01   1.4691635E+02
         2        37        46   9.0005852E+01   1.4691635E+02
         3        37        46   9.0005852E+01   1.4691635E+02
         4        37        46   9.0005852E+01   6.6865593E+01
         5        37        46   9.0005852E+01   1.6716404E+01
         6        37        46   9.0005852E+01   4.2728955E+02
         7        37        46   9.0005852E+01   3.9258344E+02
         1        38        46   9.3491806E+01   3.0004616E+01
         2        38        46   9.3491806E+01   2.8002905E+02
         3        38        46   9.3491806E+01   1.4001454E+02
         4        38        46   9.3491806E+01   8.0064049E+01
         5        38        46   9.3491806E+01   2.0016006E+01
         6        38        46   9.3491806E+01   4.2367944E+02
         7        38        46   9.3491806E+01   4.0883966E+02
         1        38        48   9.2513878E+01   3.5419922E+01
         2        38        48   9.2513878E+01   2.6028696E+02
         3        38        48   9.2513878E+01   1.3014348E+02
         4        38        48   9.2513878E+01   1.0069023E+02
         5        38        48   9.2513878E+01   2.5172562E+01
         6        38        48   9.2513878E+01   4.6138766E+02
         7        38        48   9.2513878E+01   4.4950104E+02
         1        40        48   9.1675903E+01   1.3218076E+02
         2        40        48   9.1675903E+01   1.3218073E+02
         3        40        48   9.1675903E+01   1.3218071E+02
         4        40        48   9.1675903E+01   1.1737930E+02
         5        40        48   9.1675903E+01   2.9344826E+01
         6        40        48   9.1675903E+01   4.1812488E+02
         7        40        48   9.1675903E+01   4.8396387E+02
         1        40        50   9.6126511E+01   1.4248624E+02
         2        40        50   9.6126511E+01   1.4248625E+02
         3        40        50   9.6126511E+01   1.4248624E+02
         4        40        50   9.6126511E+01   1.3214865E+02
         5        40        50   9.6126511E+01   3.3037167E+01
         6        40        50   9.6126511E+01   3.2924225E+02
         7        40        50   9.6126511E+01   6.4640930E+02
         1        41        51   9.5277489E+01   1.4194531E+02
         2        41        51   9.5277489E+01   1.4194528E+02
         3        41        51   9.5277489E+01   1.4194528E+02
         4        41        51   9.5277489E+01   1.2975150E+02
         5        41        51   9.5277489E+01   3.2437889E+01
         6        41        51   9.5277489E+01   2.8046384E+02
         7        41        51   9.5277489E+01   7.3701025E+02
         1        41        55   9.5017883E+01   4.7514763E+01
         2        41        55   9.5017883E+01   2.8596777E+02
         3        41        55   9.5017883E+01   1.4298387E+02
         4        41        55   9.5017883E+01   8.1352066E+01
         5        41        55   9.5017883E+01   2.0338020E+01
         6        41        55   9.5017883E+01   3.7019177E+02
         7        41        55   9.5017883E+01   3.5430145E+02
         1        41        56   9.5130943E+01   4.6532936E+01
         2        41        56   9.5130943E+01   2.9353320E+02
         3        41        56   9.5130943E+01   1.4676660E+02
         4        41        56   9.5130943E+01   7.3125816E+01
         5        41        56   9.5130943E+01   1.8281450E+01
         6        41        56   9.5130943E+01   3.9736429E+02
         7        41        56   9.5130943E+01   3.3775134E+02
