# Basic package file for MODFLOW, generated by Flopy.
 FREE
INTERNAL               1     (8I10) -1 #ibound layer 1                
         1         1         0         0         0         0         0         0
         0         1         0         0         0         0         0         0
         1         3         1         0         0         0         0         0
         3         3         3         3         0         0         0         0
         0         3         3         3         3         3         0         0
         0         3         3         3         3         3         0         0
         0         1         3         3         3         3         3         0
         0         7         1         3         3         3         3         0
         0         7         3         3         7         3         3         0
         0         7         3         1         3         3         1         0
         0         7         7         3         3         7         7         0
         7         7         3         7         7         7         0         0
         0         7         7         0         0         0         0         0
         0         0         0         0         0         0         0         0
INTERNAL               1     (8I10) -1 #ibound layer 2                
         3         3         0         0         0         0         0         0
         0         3         0         0         0         0         0         0
         3         3         3         0         0         0         0         0
         3         3         3         3         0         0         0         0
         0         3         3         3         3         3         0         0
         0         3         3         3         3         3         0         0
         0         3         3         3         3         3         3         0
         0         7         3         3         3         3         3         0
         0         7         3         3         7         3         3         0
         0         7         3         3         3         3         3         0
         0         7         7         3         3         7         7         0
         7         7         3         7         7         7         0         0
         0         7         7         0         0         0         0         0
         0         0         0         0         0         0         0         0
INTERNAL               1     (8I10) -1 #ibound layer 3                
         3         3         0         0         0         0         0         0
         0         3         0         0         0         0         0         0
         3         3         3         0         0         0         0         0
         3         3         3         3         0         0         0         0
         0         3         3         3         3         3         0         0
         0         3         3         3         3         3         0         0
         0         3         3         3         3         3         3         0
         0         7         3         3         3         3         3         0
         0         7         3         3         7         3         3         0
         0         7         3         3         3         3         3         0
         0         7         7         3         3         7         7         0
         7         7         3         7         7         7         0         0
         0         7         7         0         0         0         0         0
         0         0         0         0         0         0         0         0
INTERNAL               1     (8I10) -1 #ibound layer 4                
         4         5         0         0         0         0         0         0
         0         5         0         0         0         0         0         0
         7         5         5         0         0         0         0         0
         7         5         5         5         0         0         0         0
         0         5         5         5         5         5         0         0
         0         5         5         7         5         5         0         0
         0         5         5         7         5         7         5         0
         0         7         7         7         7         7         5         0
         0         7         7         5         7         7         7         0
         0         7         5         5         7         7         7         0
         0         7         7         7         5         7         7         0
         7         7         6         7         7         7         0         0
         0         7         7         0         0         0         0         0
         0         0         0         0         0         0         0         0
INTERNAL               1     (8I10) -1 #ibound layer 5                
         6         5         0         0         0         0         0         0
         0         5         0         0         0         0         0         0
         7         5         5         0         0         0         0         0
         7         5         5         5         0         0         0         0
         0         5         5         5         5         5         0         0
         0         5         5         7         5         5         0         0
         0         5         5         7         5         7         5         0
         0         7         7         7         7         7         5         0
         0         7         7         5         7         7         7         0
         0         7         5         5         7         7         7         0
         0         7         7         7         5         7         7         0
         7         7         6         7         7         7         0         0
         0         7         7         0         0         0         0         0
         0         0         0         0         0         0         0         0
INTERNAL               1     (8I10) -1 #ibound layer 6                
         6         6         0         0         0         0         0         0
         0         6         0         0         0         0         0         0
         7         6         6         0         0         0         0         0
         7         6         6         6         0         0         0         0
         0         6         6         6         6         6         0         0
         0         6         6         7         6         6         0         0
         0         6         6         7         6         7         6         0
         0         7         7         7         7         7         6         0
         0         7         7         7         7         7         7         0
         0         7         7         7         7         7         7         0
         0         7         7         7         7         7         7         0
         7         7         6         7         7         7         0         0
         0         7         7         0         0         0         0         0
         0         0         0         0         0         0         0         0
INTERNAL               1     (8I10) -1 #ibound layer 7                
         7         7         0         0         0         0         0         0
         0         7         0         0         0         0         0         0
         7         7         7         0         0         0         0         0
         7         7         7         7         0         0         0         0
         0         7         7         7         7         7         0         0
         0         7         7         7         7         7         0         0
         0         7         7         7         7         7         7         0
         0         7         7         7         7         7         7         0
         0         7         7         7         7         7         7         0
         0         7         7         7         7         7         7         0
         0         7         7         7         7         7         7         0
         7         7         7         7         7         7         0         0
         0         7         7         0         0         0         0         0
         0         0         0         0         0         0         0         0
        -999.99
INTERNAL               1   (8E15.6) -1 #strt layer 1                  
   7.857430E+01   7.928625E+01   7.928625E+01   7.928625E+01   8.490594E+01   8.490594E+01   9.744878E+01   9.744878E+01
   7.857430E+01   8.079031E+01   8.079031E+01   8.490594E+01   8.490594E+01   9.334837E+01   9.744878E+01   9.744878E+01
   8.174956E+01   6.876366E+01   8.490594E+01   8.490594E+01   9.334837E+01   9.744878E+01   9.744878E+01   9.744878E+01
   8.643972E+01   7.531477E+01   7.811690E+01   8.037309E+01   9.334837E+01   9.744878E+01   9.744878E+01   9.744878E+01
   8.776956E+01   8.069392E+01   8.443990E+01   8.838713E+01   8.800478E+01   8.164407E+01   9.744878E+01   1.144693E+02
   1.036738E+02   8.732663E+01   9.272829E+01   9.049878E+01   9.064586E+01   9.505621E+01   1.144693E+02   1.144693E+02
   1.036738E+02   1.036738E+02   1.038448E+02   1.083439E+02   1.028660E+02   1.030881E+02   9.112909E+01   1.144693E+02
   1.181380E+02   1.109951E+02   1.169197E+02   1.193828E+02   1.173972E+02   1.163940E+02   9.537347E+01   1.144693E+02
   1.596747E+02   1.525318E+02   1.356607E+02   1.322767E+02   1.417202E+02   1.090551E+02   1.026951E+02   1.144693E+02
   1.847066E+02   1.736931E+02   1.443494E+02   1.328671E+02   1.581748E+02   1.181139E+02   1.144693E+02   1.144693E+02
   2.800547E+02   1.928340E+02   1.727832E+02   1.597230E+02   1.806360E+02   1.589483E+02   1.552734E+02   1.789693E+02
   2.729119E+02   2.231452E+02   1.888732E+02   1.928795E+02   2.327950E+02   1.962503E+02   2.033931E+02   1.789693E+02
   2.800547E+02   3.192509E+02   2.354769E+02   2.426198E+02   2.399379E+02   2.033931E+02   2.033931E+02   2.033931E+02
   3.263938E+02   3.263938E+02   2.426198E+02   2.426198E+02   2.399379E+02   2.033931E+02   2.033931E+02   2.033931E+02
INTERNAL               1   (8E15.6) -1 #strt layer 2                  
   5.780291E+01   5.533144E+01   4.848905E+01   4.848905E+01   5.073643E+01   5.073643E+01   5.857168E+01   5.857168E+01
   4.827583E+01   5.039265E+01   4.937334E+01   5.073643E+01   5.073643E+01   5.652147E+01   5.857168E+01   5.857168E+01
   6.392375E+01   3.537482E+01   4.727938E+01   5.073643E+01   5.652147E+01   5.857168E+01   5.857168E+01   5.857168E+01
   8.378004E+01   5.063703E+01   5.638177E+01   5.442252E+01   5.652147E+01   5.857168E+01   5.857168E+01   5.857168E+01
   8.378004E+01   5.703641E+01   6.491455E+01   6.300309E+01   6.281310E+01   5.003463E+01   5.857168E+01   6.558194E+01
   6.505541E+01   6.444160E+01   6.943912E+01   6.314966E+01   6.379679E+01   7.160063E+01   7.394329E+01   7.118202E+01
   8.227750E+01   8.818393E+01   8.614751E+01   9.045518E+01   8.137362E+01   9.366809E+01   6.703535E+01   7.118202E+01
   1.181380E+02   9.670938E+01   1.115444E+02   1.076297E+02   1.081185E+02   1.116512E+02   7.608655E+01   7.931273E+01
   1.596747E+02   1.382461E+02   1.328357E+02   1.274345E+02   1.274345E+02   1.054330E+02   9.033591E+01   9.163324E+01
   1.847066E+02   1.594074E+02   1.405223E+02   1.263116E+02   1.558415E+02   1.089442E+02   1.111360E+02   1.109693E+02
   2.800547E+02   1.785482E+02   1.584975E+02   1.563532E+02   1.799693E+02   1.446626E+02   1.409877E+02   1.789693E+02
   2.586262E+02   2.088595E+02   1.872066E+02   1.785938E+02   2.185093E+02   1.819646E+02   2.033931E+02   1.789693E+02
   2.800547E+02   3.049652E+02   2.211912E+02   2.426198E+02   2.399379E+02   2.033931E+02   2.033931E+02   2.033931E+02
   3.263938E+02   3.263938E+02   2.426198E+02   2.426198E+02   2.399379E+02   2.033931E+02   2.033931E+02   2.033931E+02
INTERNAL               1   (8E15.6) -1 #strt layer 3                  
   2.922165E+01   2.240331E+01   1.556091E+01   1.556091E+01  -1.011923E+00  -1.011923E+00   1.115752E+01   1.115752E+01
   9.847284E+00   7.403450E+00   6.384144E+00  -1.011923E+00  -1.011923E+00   1.759562E+01   1.115752E+01   1.115752E+01
   4.176422E+01   1.986001E+00  -4.468964E+00  -1.011923E+00   1.759562E+01   1.115752E+01   1.115752E+01   1.115752E+01
   8.112035E+01   2.595929E+01   3.464665E+01   2.847196E+01   1.759562E+01   1.115752E+01   1.115752E+01   1.115752E+01
   7.979051E+01   3.337889E+01   4.538922E+01   3.761905E+01   3.762141E+01   1.842519E+01   1.115752E+01   1.115752E+01
   3.011405E+01   4.155656E+01   4.614996E+01   3.580054E+01   3.694772E+01   4.814506E+01   3.641727E+01   3.089474E+01
   6.455821E+01   7.046465E+01   6.845024E+01   7.256651E+01   5.988123E+01   8.424812E+01   4.294161E+01   3.089474E+01
   1.181380E+02   8.242367E+01   1.061479E+02   9.587656E+01   9.883981E+01   1.069085E+02   5.679962E+01   4.715615E+01
   1.596747E+02   1.239604E+02   1.300107E+02   1.225924E+02   1.131488E+02   1.018110E+02   7.797676E+01   7.179718E+01
   1.847066E+02   1.451217E+02   1.366953E+02   1.207881E+02   1.535081E+02   9.977448E+01   1.106360E+02   1.104693E+02
   2.800547E+02   1.642625E+02   1.442118E+02   1.529834E+02   1.793026E+02   1.303769E+02   1.267019E+02   1.789693E+02
   2.443404E+02   1.945738E+02   1.855399E+02   1.643081E+02   2.042236E+02   1.676788E+02   2.033931E+02   1.789693E+02
   2.800547E+02   2.906795E+02   2.069055E+02   2.426198E+02   2.399379E+02   2.033931E+02   2.033931E+02   2.033931E+02
   3.263938E+02   3.263938E+02   2.426198E+02   2.426198E+02   2.399379E+02   2.033931E+02   2.033931E+02   2.033931E+02
INTERNAL               1   (8E15.6) -1 #strt layer 4                  
   3.761074E+00  -4.278133E+00  -3.725805E-01  -3.725805E-01  -1.085921E+01  -1.085921E+01  -4.775976E+00  -4.775976E+00
  -6.086210E+00  -1.995939E+01  -9.549351E+00  -1.085921E+01  -1.085921E+01   1.662127E+00  -4.775976E+00  -4.775976E+00
   2.633403E+01  -2.515085E+01  -3.613662E+01  -1.085921E+01   1.662127E+00  -4.775976E+00  -4.775976E+00  -4.775976E+00
   7.611267E+01   3.464355E+00   8.611554E+00  -3.035456E+00   1.662127E+00  -4.775976E+00  -4.775976E+00  -4.775976E+00
   7.979051E+01   1.124468E+01   2.137973E+01   3.571409E+00   8.712811E+00  -5.255763E+00  -4.775976E+00  -4.775976E+00
   1.706327E+01   1.967342E+01   2.470617E+01   1.082968E+01   2.160208E+01   1.637596E+01   1.212243E+01   2.548357E+01
   4.974404E+01   5.270687E+01   4.600849E+01   5.524508E+01   4.476574E+01   7.377426E+01   2.656581E+01   2.548357E+01
   1.181380E+02   6.813795E+01   1.000161E+02   8.351617E+01   8.848019E+01   1.002166E+02   4.019056E+01   3.844917E+01
   1.596747E+02   1.096747E+02   1.248693E+02   1.197544E+02   9.886310E+01   9.602521E+01   6.512636E+01   7.179718E+01
   1.847066E+02   1.308360E+02   1.328358E+02   1.056456E+02   1.487643E+02   8.950294E+01   1.068922E+02   1.104693E+02
   2.800547E+02   1.499768E+02   1.299261E+02   1.474015E+02   1.769693E+02   1.160912E+02   1.124162E+02   1.706927E+02
   2.300547E+02   1.802881E+02   1.838204E+02   1.500224E+02   1.899379E+02   1.533931E+02   2.033931E+02   1.706927E+02
   2.800547E+02   2.763938E+02   1.926198E+02   2.426198E+02   2.399379E+02   2.033931E+02   2.033931E+02   2.033931E+02
   3.263938E+02   3.263938E+02   2.426198E+02   2.426198E+02   2.399379E+02   2.033931E+02   2.033931E+02   2.033931E+02
INTERNAL               1   (8E15.6) -1 #strt layer 5                  
  -5.546008E+01  -2.390987E+01  -2.000432E+01  -2.000432E+01  -2.888196E+01  -2.888196E+01  -1.462127E+01  -1.462127E+01
  -2.584073E+01  -3.625077E+01  -2.584073E+01  -2.888196E+01  -2.888196E+01  -2.150303E+01  -1.462127E+01  -1.462127E+01
   1.627943E+01  -3.820390E+01  -5.415938E+01  -2.888196E+01  -2.150303E+01  -1.462127E+01  -1.462127E+01  -1.462127E+01
   7.151537E+01  -9.230721E+00  -1.034786E+01  -2.620061E+01  -2.150303E+01  -1.462127E+01  -1.462127E+01  -1.462127E+01
   7.979051E+01  -1.637141E+00   3.571211E+00  -2.312310E+01  -1.167814E+01  -1.510105E+01  -1.462127E+01  -1.462127E+01
   2.006244E+00   6.622645E+00   1.245716E+01  -3.290690E+00   1.920070E+01  -8.675676E+00  -1.292921E+01   1.003620E+01
   2.888566E+01   3.789270E+01   2.901709E+01   4.477374E+01   3.930413E+01   6.656941E+01   2.115464E+01   1.003620E+01
   1.181380E+02   5.385224E+01   9.459987E+01   7.541141E+01   8.132983E+01   9.481579E+01   3.148357E+01   1.633770E+01
   1.596747E+02   9.538898E+01   1.202083E+02   1.192333E+02   8.457738E+01   9.105671E+01   5.678782E+01   7.179718E+01
   1.827713E+02   1.165502E+02   1.304033E+02   8.901880E+01   1.442929E+02   8.239462E+01   1.024207E+02   1.104693E+02
   2.800547E+02   1.356911E+02   1.156404E+02   1.425302E+02   1.744693E+02   1.018055E+02   9.813052E+01   1.624162E+02
   2.157690E+02   1.660023E+02   1.827127E+02   1.357366E+02   1.756522E+02   1.391074E+02   2.033931E+02   1.624162E+02
   2.800547E+02   2.621081E+02   1.783341E+02   2.426198E+02   2.399379E+02   2.033931E+02   2.033931E+02   2.033931E+02
   3.263938E+02   3.263938E+02   2.426198E+02   2.426198E+02   2.399379E+02   2.033931E+02   2.033931E+02   2.033931E+02
INTERNAL               1   (8E15.6) -1 #strt layer 6                  
  -1.074053E+02  -1.035294E+02  -1.035294E+02  -1.035294E+02  -7.664463E+01  -7.664463E+01  -5.378505E+01  -5.378505E+01
  -7.778593E+01  -8.475452E+01  -8.475452E+01  -7.664463E+01  -7.664463E+01  -5.324469E+01  -5.378505E+01  -5.378505E+01
   1.225760E+01  -5.435537E+01  -7.664463E+01  -7.664463E+01  -5.324469E+01  -5.378505E+01  -5.378505E+01  -5.378505E+01
   6.967644E+01  -2.153592E+01  -2.584910E+01  -5.324469E+01  -5.324469E+01  -5.378505E+01  -5.378505E+01  -5.378505E+01
   2.337140E+01  -1.863061E+01  -1.128414E+01  -4.044680E+01  -5.338026E+01  -5.378505E+01  -5.378505E+01  -5.378505E+01
  -1.719177E+01  -1.518553E+01  -1.133497E+01  -8.938841E+00   9.094839E+00  -1.531066E+01  -1.531066E+01  -1.146030E+00
   1.142073E+01   2.888566E+01   2.407770E+01   4.058519E+01   2.433973E+01   6.368748E+01   8.890172E+00  -1.146030E+00
   5.906898E+01   3.956652E+01   9.243338E+01   7.216949E+01   7.846970E+01   9.265549E+01   1.633770E+01   1.466615E+00
   7.983735E+01   8.110327E+01   1.183438E+02   1.124414E+02   7.029167E+01   8.906931E+01   5.345241E+01   3.589859E+01
   9.041798E+01   1.022645E+02   1.231091E+02   7.368621E+01   1.425043E+02   7.955128E+01   1.006322E+02   5.523465E+01
   1.400274E+02   1.214054E+02   1.013547E+02   1.405818E+02   1.686036E+02   8.751978E+01   8.384480E+01   8.120811E+01
   2.014833E+02   1.517166E+02   1.822696E+02   1.214509E+02   1.613664E+02   1.248217E+02   1.016966E+02   8.120811E+01
   1.400274E+02   2.478223E+02   1.640484E+02   1.213099E+02   1.199689E+02   1.016966E+02   1.016966E+02   1.016966E+02
   1.631969E+02   1.631969E+02   1.213099E+02   1.213099E+02   1.199689E+02   1.016966E+02   1.016966E+02   1.016966E+02
INTERNAL               1   (8E15.6) -1 #strt layer 7                  
  -1.564066E+02  -1.842225E+02  -1.842225E+02  -1.842225E+02  -1.335659E+02  -1.335659E+02  -1.511609E+02  -1.511609E+02
  -1.564066E+02  -1.732551E+02  -1.732551E+02  -1.335659E+02  -1.335659E+02  -1.110765E+02  -1.511609E+02  -1.511609E+02
   8.235757E+00  -1.005000E+02  -1.335659E+02  -1.335659E+02  -1.110765E+02  -1.511609E+02  -1.511609E+02  -1.511609E+02
   6.783751E+01  -5.771413E+01  -6.533618E+01  -1.110765E+02  -1.110765E+02  -1.511609E+02  -1.511609E+02  -1.511609E+02
  -1.652386E+01  -6.065039E+01  -4.859826E+01  -8.506353E+01  -1.400798E+02  -1.511609E+02  -1.511609E+02  -1.511609E+02
  -6.335103E+01  -6.335103E+01  -6.234632E+01  -1.458699E+01  -2.435895E+01  -4.420480E+01  -4.420480E+01  -2.627630E+01
  -8.790964E+00   2.629765E+00   1.308372E+00   3.639665E+01  -1.309837E+01   6.080554E+01  -2.627630E+01  -2.627630E+01
   0.000000E+00   2.528081E+01   9.026689E+01   6.892758E+01   7.560956E+01   9.049518E+01  -2.044184E+01  -2.190845E+01
   0.000000E+00   6.681755E+01   1.164794E+02   1.046390E+02   5.600595E+01   8.708192E+01   5.011700E+01   0.000000E+00
   0.000000E+00   8.797881E+01   1.151667E+02   5.967777E+01   1.407158E+02   7.670796E+01   9.884360E+01   0.000000E+00
   0.000000E+00   1.071197E+02   8.706894E+01   1.386333E+02   1.623436E+02   7.323405E+01   6.955908E+01   0.000000E+00
   1.871976E+02   1.374309E+02   1.756696E+02   1.071652E+02   1.470807E+02   1.105360E+02   0.000000E+00   0.000000E+00
   0.000000E+00   2.335366E+02   1.497627E+02   0.000000E+00   0.000000E+00   0.000000E+00   0.000000E+00   0.000000E+00
   0.000000E+00   0.000000E+00   0.000000E+00   0.000000E+00   0.000000E+00   0.000000E+00   0.000000E+00   0.000000E+00
