# RIV for MODFLOW, generated by Flopy.
        19        53
        19         0 # stress period 0
         1        12         3   1.8970657E+02   1.6029350E+02   1.8969658E+02
         1         8         4   1.2525937E+02   1.5141083E+02   1.2524937E+02
         1         9         4   1.3469778E+02   9.8248701E+03   1.3468779E+02
         1        10         4   1.3574033E+02   7.4862422E+03   1.3573033E+02
         1        11         4   1.6140796E+02   6.1933838E+03   1.6139796E+02
         1        12         4   2.0002235E+02   6.4442256E+03   2.0001236E+02
         1         5         5   1.0060062E+02   5.1480337E+03   1.0059061E+02
         1         6         5   1.0407040E+02   5.9734106E+03   1.0406039E+02
         1         7         5   1.1361220E+02   7.9406123E+03   1.1360220E+02
         1         8         5   1.2203655E+02   1.0016854E+04   1.2202655E+02
         1         9         5   1.4886310E+02   8.4359766E+02   1.4885310E+02
         1         5         6   9.7448784E+01   4.7053940E+03   9.7438782E+01
         1         6         6   1.0678400E+02   3.8138950E+03   1.0677399E+02
         1         1         1   8.0291496E+01   6.2764191E+01   8.0281494E+01
         1         1         2   8.1288963E+01   1.7192436E+04   8.1278961E+01
         1         2         2   8.2528526E+01   1.0250341E+04   8.2518524E+01
         1         3         3   8.8033607E+01   1.2444154E+04   8.8023605E+01
         1         4         4   9.3348373E+01   1.0317773E+04   9.3338371E+01
         1         5         6   9.7448784E+01   2.1334241E+03   9.7438782E+01
