# RCH for MODFLOW, generated by Flopy.
         3        53
         1        -1 # Stress period 1
INTERNAL               1   (8E15.6) -1 #rech_1                        
   5.819178E-05   5.819178E-05   5.819178E-05   5.819178E-05   5.819178E-05   5.819178E-05   5.819178E-05   5.819178E-05
   5.819178E-05   5.819178E-05   5.819178E-05   5.819178E-05   5.819178E-05   5.819178E-05   5.819178E-05   5.819178E-05
   5.819178E-05   5.819178E-05   5.819178E-05   5.819178E-05   5.819178E-05   5.819178E-05   5.819178E-05   5.819178E-05
   5.819178E-05   5.819178E-05   5.819178E-05   5.819178E-05   5.819178E-05   5.819178E-05   5.819178E-05   5.819178E-05
   5.819178E-05   5.819178E-05   5.819178E-05   5.819178E-05   5.819178E-05   5.819178E-05   5.819178E-05   5.819178E-05
   6.342099E-05   6.019502E-05   6.019502E-05   6.019502E-05   6.019502E-05   5.819178E-05   5.819178E-05   5.819178E-05
   6.342099E-05   6.342099E-05   6.342099E-05   6.019502E-05   6.019502E-05   6.019502E-05   6.019502E-05   6.019502E-05
   6.342099E-05   6.342099E-05   6.342099E-05   6.342099E-05   6.019502E-05   6.019502E-05   6.019502E-05   6.019502E-05
   6.342099E-05   6.342099E-05   6.342099E-05   6.342099E-05   6.342099E-05   6.342099E-05   6.019502E-05   6.019502E-05
   6.342099E-05   6.342099E-05   6.342099E-05   6.342099E-05   6.342099E-05   6.342099E-05   6.342099E-05   6.342099E-05
   7.096455E-05   7.096455E-05   7.096455E-05   7.096455E-05   7.096455E-05   7.096455E-05   6.342099E-05   6.342099E-05
   7.096455E-05   7.096455E-05   7.096455E-05   7.096455E-05   7.096455E-05   7.096455E-05   7.096455E-05   7.096455E-05
   7.096455E-05   7.096455E-05   7.096455E-05   7.096455E-05   7.096455E-05   7.096455E-05   7.096455E-05   7.096455E-05
   7.096455E-05   7.096455E-05   7.096455E-05   7.096455E-05   7.096455E-05   7.096455E-05   7.096455E-05   7.096455E-05
