# Discretization file for MODFLOW, generated by Flopy.
         7        14         8         1         4         2
  0  0  0  0  0  0  0
CONSTANT    1.000000E+04                           #delr                          
CONSTANT    1.000000E+04                           #delc                          
INTERNAL               1   (8E15.6) -1 #model_top                     
   8.029150E+01   8.128896E+01   8.128896E+01   8.128896E+01   8.803361E+01   8.803361E+01   9.744878E+01   9.744878E+01
   8.029150E+01   8.252853E+01   8.252853E+01   8.803361E+01   8.803361E+01   9.334837E+01   9.744878E+01   9.744878E+01
   8.480235E+01   8.545807E+01   8.803361E+01   8.803361E+01   9.334837E+01   9.744878E+01   9.744878E+01   9.744878E+01
   8.776956E+01   8.765364E+01   8.898446E+01   9.334837E+01   9.334837E+01   9.744878E+01   9.744878E+01   9.744878E+01
   8.776956E+01   9.252267E+01   9.420256E+01   1.010792E+02   1.006006E+02   9.744878E+01   9.744878E+01   1.174693E+02
   1.073509E+02   9.876915E+01   1.043729E+02   1.041733E+02   1.040704E+02   1.067840E+02   1.174693E+02   1.174693E+02
   1.073509E+02   1.073509E+02   1.126934E+02   1.172882E+02   1.136122E+02   1.077980E+02   1.031760E+02   1.174693E+02
   1.181380E+02   1.181380E+02   1.186974E+02   1.252594E+02   1.220366E+02   1.187653E+02   1.050169E+02   1.174693E+02
   1.596747E+02   1.596747E+02   1.370732E+02   1.346978E+02   1.488631E+02   1.108661E+02   1.088746E+02   1.174693E+02
   1.847066E+02   1.808360E+02   1.462629E+02   1.357403E+02   1.593415E+02   1.226988E+02   1.174693E+02   1.174693E+02
   2.800547E+02   1.999768E+02   1.799261E+02   1.614080E+02   1.809693E+02   1.660912E+02   1.624162E+02   1.789693E+02
   2.800547E+02   2.302881E+02   1.897066E+02   2.000224E+02   2.399379E+02   2.033931E+02   2.033931E+02   1.789693E+02
   2.800547E+02   3.263938E+02   2.426198E+02   2.426198E+02   2.399379E+02   2.033931E+02   2.033931E+02   2.033931E+02
   3.263938E+02   3.263938E+02   2.426198E+02   2.426198E+02   2.399379E+02   2.033931E+02   2.033931E+02   2.033931E+02
INTERNAL               1   (8E15.6) -1 #botm layer 1                  
   7.685709E+01   7.728354E+01   7.728354E+01   7.728354E+01   8.177828E+01   8.177828E+01   9.744878E+01   9.744878E+01
   7.685709E+01   7.905211E+01   7.905211E+01   8.177828E+01   8.177828E+01   9.334837E+01   9.744878E+01   9.744878E+01
   7.869677E+01   5.206924E+01   8.177828E+01   8.177828E+01   9.334837E+01   9.744878E+01   9.744878E+01   9.744878E+01
   8.510988E+01   6.297590E+01   6.724934E+01   6.739780E+01   9.334837E+01   9.744878E+01   9.744878E+01   9.744878E+01
   8.776956E+01   6.886517E+01   7.467722E+01   7.569511E+01   7.540894E+01   6.583935E+01   9.744878E+01   1.114693E+02
   9.999678E+01   7.588412E+01   8.108370E+01   7.682422E+01   7.722133E+01   8.332842E+01   1.114693E+02   1.114693E+02
   9.999678E+01   9.999678E+01   9.499614E+01   9.939953E+01   9.211981E+01   9.837808E+01   7.908222E+01   1.114693E+02
   1.181380E+02   1.038522E+02   1.151421E+02   1.135062E+02   1.127579E+02   1.140226E+02   8.573001E+01   1.114693E+02
   1.596747E+02   1.453890E+02   1.342482E+02   1.298556E+02   1.345774E+02   1.072440E+02   9.651550E+01   1.114693E+02
   1.847066E+02   1.665502E+02   1.424359E+02   1.299939E+02   1.570081E+02   1.135291E+02   1.114693E+02   1.114693E+02
   2.800547E+02   1.856911E+02   1.656404E+02   1.580381E+02   1.803026E+02   1.518055E+02   1.481305E+02   1.789693E+02
   2.657690E+02   2.160023E+02   1.880399E+02   1.857366E+02   2.256521E+02   1.891074E+02   2.033931E+02   1.789693E+02
   2.800547E+02   3.121081E+02   2.283341E+02   2.426198E+02   2.399379E+02   2.033931E+02   2.033931E+02   2.033931E+02
   3.263938E+02   3.263938E+02   2.426198E+02   2.426198E+02   2.399379E+02   2.033931E+02   2.033931E+02   2.033931E+02
INTERNAL               1   (8E15.6) -1 #botm layer 2                  
   3.874874E+01   3.337935E+01   1.969457E+01   1.969457E+01   1.969457E+01   1.969457E+01   1.969457E+01   1.969457E+01
   1.969457E+01   2.173318E+01   1.969457E+01   1.969457E+01   1.969457E+01   1.969457E+01   1.969457E+01   1.969457E+01
   4.915073E+01   1.868041E+01   1.278049E+01   1.969457E+01   1.969457E+01   1.969457E+01   1.969457E+01   1.969457E+01
   8.245020E+01   3.829816E+01   4.551421E+01   4.144724E+01   1.969457E+01   1.969457E+01   1.969457E+01   1.969457E+01
   7.979051E+01   4.520765E+01   5.515189E+01   5.031107E+01   5.021725E+01   3.422991E+01   1.969457E+01   1.969457E+01
   3.011405E+01   5.299908E+01   5.779454E+01   4.947510E+01   5.037226E+01   5.987285E+01   3.641727E+01   3.089474E+01
   6.455821E+01   7.637107E+01   7.729887E+01   8.151085E+01   7.062743E+01   8.895811E+01   5.498848E+01   3.089474E+01
   1.181380E+02   8.956653E+01   1.079467E+02   1.017531E+02   1.034792E+02   1.092799E+02   6.644308E+01   4.715615E+01
   1.596747E+02   1.311033E+02   1.314232E+02   1.250135E+02   1.202917E+02   1.036220E+02   8.415633E+01   7.179718E+01
   1.847066E+02   1.522645E+02   1.386088E+02   1.226293E+02   1.546748E+02   1.043593E+02   1.108026E+02   1.104693E+02
   2.800547E+02   1.714054E+02   1.513547E+02   1.546683E+02   1.796360E+02   1.375198E+02   1.338448E+02   1.789693E+02
   2.514833E+02   2.017166E+02   1.863732E+02   1.714509E+02   2.113664E+02   1.748217E+02   2.033931E+02   1.789693E+02
   2.800547E+02   2.978223E+02   2.140484E+02   2.426198E+02   2.399379E+02   2.033931E+02   2.033931E+02   2.033931E+02
   3.263938E+02   3.263938E+02   2.426198E+02   2.426198E+02   2.399379E+02   2.033931E+02   2.033931E+02   2.033931E+02
INTERNAL               1   (8E15.6) -1 #botm layer 3                  
   1.969457E+01   1.142726E+01   1.142726E+01   1.142726E+01  -2.171841E+01  -2.171841E+01   2.620468E+00   2.620468E+00
   0.000000E+00  -6.926281E+00  -6.926281E+00  -2.171841E+01  -2.171841E+01   1.549667E+01   2.620468E+00   2.620468E+00
   3.437771E+01  -1.470841E+01  -2.171841E+01  -2.171841E+01   1.549667E+01   2.620468E+00   2.620468E+00   2.620468E+00
   7.979051E+01   1.362042E+01   2.377909E+01   1.549667E+01   1.549667E+01   2.620468E+00   2.620468E+00   2.620468E+00
   7.979051E+01   2.155014E+01   3.562655E+01   2.492702E+01   2.502557E+01   2.620468E+00   2.620468E+00   2.620468E+00
   3.011405E+01   3.011405E+01   3.450538E+01   2.212598E+01   2.352319E+01   3.641727E+01   3.641727E+01   3.089474E+01
   6.455821E+01   6.455821E+01   5.960162E+01   6.362216E+01   4.913503E+01   7.953814E+01   3.089474E+01   3.089474E+01
   1.181380E+02   7.528081E+01   1.043491E+02   9.000000E+01   9.420047E+01   1.045372E+02   4.715615E+01   4.715615E+01
   1.596747E+02   1.168176E+02   1.285982E+02   1.201713E+02   1.060060E+02   1.000000E+02   7.179718E+01   7.179718E+01
   1.847066E+02   1.379788E+02   1.347818E+02   1.189470E+02   1.523415E+02   9.518961E+01   1.104693E+02   1.104693E+02
   2.800547E+02   1.571197E+02   1.370689E+02   1.512984E+02   1.789693E+02   1.232341E+02   1.195591E+02   1.789693E+02
   2.371976E+02   1.874309E+02   1.847066E+02   1.571652E+02   1.970807E+02   1.605360E+02   2.033931E+02   1.789693E+02
   2.800547E+02   2.835366E+02   1.997626E+02   2.426198E+02   2.399379E+02   2.033931E+02   2.033931E+02   2.033931E+02
   3.263938E+02   3.263938E+02   2.426198E+02   2.426198E+02   2.399379E+02   2.033931E+02   2.033931E+02   2.033931E+02
INTERNAL               1   (8E15.6) -1 #botm layer 4                  
  -1.217242E+01  -1.998353E+01  -1.217242E+01  -1.217242E+01   0.000000E+00   0.000000E+00  -1.217242E+01  -1.217242E+01
  -1.217242E+01  -3.299250E+01  -1.217242E+01   0.000000E+00   0.000000E+00  -1.217242E+01  -1.217242E+01  -1.217242E+01
   1.829035E+01  -3.559329E+01  -5.055482E+01   0.000000E+00  -1.217242E+01  -1.217242E+01  -1.217242E+01  -1.217242E+01
   7.243482E+01  -6.691707E+00  -6.555977E+00  -2.156758E+01  -1.217242E+01  -1.217242E+01  -1.217242E+01  -1.217242E+01
   7.979051E+01   9.392242E-01   7.132915E+00  -1.778420E+01  -7.599945E+00  -1.313199E+01  -1.217242E+01  -1.217242E+01
   4.012489E+00   9.232801E+00   1.490696E+01  -4.666157E-01   1.968097E+01  -3.665348E+00  -1.217242E+01   2.007240E+01
   3.492987E+01   4.085554E+01   3.241537E+01   4.686800E+01   4.039645E+01   6.801038E+01   2.223687E+01   2.007240E+01
   1.181380E+02   6.099510E+01   9.568311E+01   7.703236E+01   8.275990E+01   9.589594E+01   3.322497E+01   2.974218E+01
   1.596747E+02   1.025318E+02   1.211405E+02   1.193375E+02   9.172025E+01   9.205041E+01   5.845553E+01   7.179718E+01
   1.847066E+02   1.236931E+02   1.308898E+02   9.234415E+01   1.451872E+02   8.381628E+01   1.033150E+02   1.104693E+02
   2.800547E+02   1.428340E+02   1.227832E+02   1.435045E+02   1.749693E+02   1.089483E+02   1.052734E+02   1.624162E+02
   2.229119E+02   1.731452E+02   1.829342E+02   1.428795E+02   1.827950E+02   1.462503E+02   2.033931E+02   1.624162E+02
   2.800547E+02   2.692509E+02   1.854769E+02   2.426198E+02   2.399379E+02   2.033931E+02   2.033931E+02   2.033931E+02
   3.263938E+02   3.263938E+02   2.426198E+02   2.426198E+02   2.399379E+02   2.033931E+02   2.033931E+02   2.033931E+02
INTERNAL               1   (8E15.6) -1 #botm layer 5                  
  -9.874774E+01  -2.783622E+01  -2.783622E+01  -2.783622E+01  -5.776393E+01  -5.776393E+01  -1.707011E+01  -1.707011E+01
  -3.950905E+01  -3.950905E+01  -3.950905E+01  -5.776393E+01  -5.776393E+01  -3.083365E+01  -1.707011E+01  -1.707011E+01
   1.426851E+01  -4.081451E+01  -5.776393E+01  -5.776393E+01  -3.083365E+01  -1.707011E+01  -1.707011E+01  -1.707011E+01
   7.059590E+01  -1.176974E+01  -1.413974E+01  -3.083365E+01  -3.083365E+01  -1.707011E+01  -1.707011E+01  -1.707011E+01
   7.979051E+01  -4.213505E+00   9.505951E-03  -2.846201E+01  -1.575633E+01  -1.707011E+01  -1.707011E+01  -1.707011E+01
   0.000000E+00   4.012489E+00   1.000736E+01  -6.114765E+00   1.872042E+01  -1.368600E+01  -1.368600E+01   0.000000E+00
   2.284146E+01   3.492987E+01   2.561881E+01   4.267946E+01   3.821181E+01   6.512845E+01   2.007240E+01   0.000000E+00
   1.181380E+02   4.670938E+01   9.351662E+01   7.379045E+01   7.989977E+01   9.373563E+01   2.974218E+01   2.933230E+00
   1.596747E+02   8.824612E+01   1.192761E+02   1.191291E+02   7.743452E+01   9.006301E+01   5.512012E+01   7.179718E+01
   1.808360E+02   1.094074E+02   1.299167E+02   8.569344E+01   1.433986E+02   8.097295E+01   1.015265E+02   1.104693E+02
   2.800547E+02   1.285482E+02   1.084975E+02   1.415560E+02   1.739693E+02   9.466263E+01   9.098766E+01   1.624162E+02
   2.086261E+02   1.588595E+02   1.824912E+02   1.285938E+02   1.685093E+02   1.319646E+02   2.033931E+02   1.624162E+02
   2.800547E+02   2.549652E+02   1.711912E+02   2.426198E+02   2.399379E+02   2.033931E+02   2.033931E+02   2.033931E+02
   3.263938E+02   3.263938E+02   2.426198E+02   2.426198E+02   2.399379E+02   2.033931E+02   2.033931E+02   2.033931E+02
INTERNAL               1   (8E15.6) -1 #botm layer 6                  
  -1.160628E+02  -1.792225E+02  -1.792225E+02  -1.792225E+02  -9.552534E+01  -9.552534E+01  -9.049998E+01  -9.049998E+01
  -1.160628E+02  -1.300000E+02  -1.300000E+02  -9.552534E+01  -9.552534E+01  -7.565574E+01  -9.049998E+01  -9.049998E+01
   1.024668E+01  -6.789622E+01  -9.552534E+01  -9.552534E+01  -7.565574E+01  -9.049998E+01  -9.049998E+01  -9.049998E+01
   6.875697E+01  -3.130210E+01  -3.755846E+01  -7.565574E+01  -7.565574E+01  -9.049998E+01  -9.049998E+01  -9.049998E+01
  -3.304772E+01  -3.304772E+01  -2.257779E+01  -5.243159E+01  -9.100420E+01  -9.049998E+01  -9.049998E+01  -9.049998E+01
  -3.438354E+01  -3.438354E+01  -3.267729E+01  -1.176292E+01  -5.307419E-01  -1.693532E+01  -1.693532E+01  -2.292060E+00
   0.000000E+00   2.284146E+01   2.253660E+01   3.849092E+01   1.046765E+01   6.224651E+01  -2.292060E+00  -2.292060E+00
   0.000000E+00   3.242367E+01   9.135014E+01   7.054854E+01   7.703963E+01   9.157533E+01   2.933230E+00   0.000000E+00
   0.000000E+00   7.396041E+01   1.174116E+02   1.057536E+02   6.314881E+01   8.807561E+01   5.178471E+01   0.000000E+00
   0.000000E+00   9.512167E+01   1.163014E+02   6.167898E+01   1.416100E+02   7.812962E+01   9.973788E+01   0.000000E+00
   0.000000E+00   1.142625E+02   9.421180E+01   1.396075E+02   1.632379E+02   8.037691E+01   7.670194E+01   0.000000E+00
   1.943404E+02   1.445738E+02   1.820481E+02   1.143081E+02   1.542236E+02   1.176788E+02   0.000000E+00   0.000000E+00
   0.000000E+00   2.406795E+02   1.569055E+02   0.000000E+00   0.000000E+00   0.000000E+00   0.000000E+00   0.000000E+00
   0.000000E+00   0.000000E+00   0.000000E+00   0.000000E+00   0.000000E+00   0.000000E+00   0.000000E+00   0.000000E+00
INTERNAL               1   (8E15.6) -1 #botm layer 7                  
  -1.967504E+02  -1.892225E+02  -1.892225E+02  -1.892225E+02  -1.716066E+02  -1.716066E+02  -2.118218E+02  -2.118218E+02
  -1.967504E+02  -2.165103E+02  -2.165103E+02  -1.716066E+02  -1.716066E+02  -1.464972E+02  -2.118218E+02  -2.118218E+02
   6.224836E+00  -1.331038E+02  -1.716066E+02  -1.716066E+02  -1.464972E+02  -2.118218E+02  -2.118218E+02  -2.118218E+02
   6.691805E+01  -8.412617E+01  -9.311391E+01  -1.464972E+02  -1.464972E+02  -2.118218E+02  -2.118218E+02  -2.118218E+02
   0.000000E+00  -8.825307E+01  -7.461872E+01  -1.176955E+02  -1.891555E+02  -2.118218E+02  -2.118218E+02  -2.118218E+02
  -9.231851E+01  -9.231851E+01  -9.201535E+01  -1.741106E+01  -4.818715E+01  -7.147427E+01  -7.147427E+01  -5.026055E+01
  -1.758193E+01  -1.758193E+01  -1.991985E+01   3.430238E+01  -3.666439E+01   5.936457E+01  -5.026055E+01  -5.026055E+01
   0.000000E+00   1.813795E+01   8.918365E+01   6.730663E+01   7.417948E+01   8.941502E+01  -4.381691E+01  -4.381691E+01
   0.000000E+00   5.967470E+01   1.155472E+02   1.035244E+02   4.886310E+01   8.608822E+01   4.844929E+01   0.000000E+00
   0.000000E+00   8.083595E+01   1.140321E+02   5.767657E+01   1.398215E+02   7.528629E+01   9.794931E+01   0.000000E+00
   0.000000E+00   9.997681E+01   7.992609E+01   1.376590E+02   1.614493E+02   6.609120E+01   6.241623E+01   0.000000E+00
   1.800547E+02   1.302881E+02   1.692910E+02   1.000224E+02   1.399379E+02   1.033931E+02   0.000000E+00   0.000000E+00
   0.000000E+00   2.263938E+02   1.426198E+02   0.000000E+00   0.000000E+00   0.000000E+00   0.000000E+00   0.000000E+00
   0.000000E+00   0.000000E+00   0.000000E+00   0.000000E+00   0.000000E+00   0.000000E+00   0.000000E+00   0.000000E+00
      1.000000             1  1.000000  SS 
