# UPW for MODFLOW-NWT, generated by Flopy.
        53    -1E+03         0         0 
         1         1         1         1         1         1         1
         0         0         0         0         0         0         0
         1         1         1         1         1         1         1
         0         0         0         0         0         0         0
         0         0         0         0         0         0         0
INTERNAL               1   (8E15.6) -1 #hk layer 1                    
   4.435500E+01   4.435500E+01   1.000000E+00   1.000000E+00   1.000000E+00   1.000000E+00   1.000000E+00   1.000000E+00
   1.000000E+00   4.435500E+01   1.000000E+00   1.000000E+00   1.000000E+00   1.000000E+00   1.000000E+00   1.000000E+00
   4.435500E+01   1.000000E+00   4.435500E+01   1.000000E+00   1.000000E+00   1.000000E+00   1.000000E+00   1.000000E+00
   1.000000E+00   1.000000E+00   1.000000E+00   1.000000E+00   1.000000E+00   1.000000E+00   1.000000E+00   1.000000E+00
   1.000000E+00   1.000000E+00   1.000000E+00   1.000000E+00   1.000000E+00   1.000000E+00   1.000000E+00   1.000000E+00
   1.000000E+00   1.000000E+00   1.000000E+00   1.000000E+00   1.000000E+00   1.000000E+00   1.000000E+00   1.000000E+00
   1.000000E+00   4.435500E+01   1.000000E+00   1.000000E+00   1.000000E+00   1.000000E+00   1.000000E+00   1.000000E+00
   1.000000E+00   1.000000E+00   4.435500E+01   1.000000E+00   1.000000E+00   1.000000E+00   1.000000E+00   1.000000E+00
   1.000000E+00   1.000000E+00   1.000000E+00   1.000000E+00   1.000000E+00   1.000000E+00   1.000000E+00   1.000000E+00
   1.000000E+00   1.000000E+00   1.000000E+00   4.435500E+01   1.000000E+00   1.000000E+00   4.435500E+01   1.000000E+00
   1.000000E+00   1.000000E+00   1.000000E+00   1.000000E+00   1.000000E+00   1.000000E+00   1.000000E+00   1.000000E+00
   1.000000E+00   1.000000E+00   1.000000E+00   1.000000E+00   1.000000E+00   1.000000E+00   1.000000E+00   1.000000E+00
   1.000000E+00   1.000000E+00   1.000000E+00   1.000000E+00   1.000000E+00   1.000000E+00   1.000000E+00   1.000000E+00
   1.000000E+00   1.000000E+00   1.000000E+00   1.000000E+00   1.000000E+00   1.000000E+00   1.000000E+00   1.000000E+00
INTERNAL               1   (8E15.6) -1 #vka layer 1                   
   1.000000E-01   1.000000E-01  -1.000000E+00  -1.000000E+00  -1.000000E+00  -1.000000E+00  -1.000000E+00  -1.000000E+00
  -1.000000E+00   1.000000E-01  -1.000000E+00  -1.000000E+00  -1.000000E+00  -1.000000E+00  -1.000000E+00  -1.000000E+00
   1.000000E-01   1.000000E-01   1.000000E-01  -1.000000E+00  -1.000000E+00  -1.000000E+00  -1.000000E+00  -1.000000E+00
   1.000000E-01   1.000000E-01   1.000000E-01   1.000000E-01  -1.000000E+00  -1.000000E+00  -1.000000E+00  -1.000000E+00
  -1.000000E+00   1.000000E-01   1.000000E-01   1.000000E-01   1.000000E-01   1.000000E-01  -1.000000E+00  -1.000000E+00
  -1.000000E+00   1.000000E-01   1.000000E-01   1.000000E-01   1.000000E-01   1.000000E-01  -1.000000E+00  -1.000000E+00
  -1.000000E+00   1.000000E-01   1.000000E-01   1.000000E-01   1.000000E-01   1.000000E-01   1.000000E-01  -1.000000E+00
  -1.000000E+00   2.000000E-04   1.000000E-01   1.000000E-01   1.000000E-01   1.000000E-01   1.000000E-01  -1.000000E+00
  -1.000000E+00   2.000000E-04   1.000000E-01   1.000000E-01   2.000000E-04   1.000000E-01   1.000000E-01  -1.000000E+00
  -1.000000E+00   2.000000E-04   1.000000E-01   1.000000E-01   1.000000E-01   1.000000E-01   1.000000E-01  -1.000000E+00
  -1.000000E+00   2.000000E-04   2.000000E-04   1.000000E-01   1.000000E-01   2.000000E-04   2.000000E-04  -1.000000E+00
   2.000000E-04   2.000000E-04   1.000000E-01   2.000000E-04   2.000000E-04   2.000000E-04  -1.000000E+00  -1.000000E+00
  -1.000000E+00   2.000000E-04   2.000000E-04  -1.000000E+00  -1.000000E+00  -1.000000E+00  -1.000000E+00  -1.000000E+00
  -1.000000E+00  -1.000000E+00  -1.000000E+00  -1.000000E+00  -1.000000E+00  -1.000000E+00  -1.000000E+00  -1.000000E+00
INTERNAL               1   (8E15.6) -1 #hk layer 2                    
   1.000000E+00   1.000000E+00   1.000000E+00   1.000000E+00   1.000000E+00   1.000000E+00   1.000000E+00   1.000000E+00
   1.000000E+00   1.000000E+00   1.000000E+00   1.000000E+00   1.000000E+00   1.000000E+00   1.000000E+00   1.000000E+00
   1.000000E+00   1.000000E+00   1.000000E+00   1.000000E+00   1.000000E+00   1.000000E+00   1.000000E+00   1.000000E+00
   1.000000E+00   1.000000E+00   1.000000E+00   1.000000E+00   1.000000E+00   1.000000E+00   1.000000E+00   1.000000E+00
   1.000000E+00   1.000000E+00   1.000000E+00   1.000000E+00   1.000000E+00   1.000000E+00   1.000000E+00   1.000000E+00
   1.000000E+00   1.000000E+00   1.000000E+00   1.000000E+00   1.000000E+00   1.000000E+00   1.000000E+00   1.000000E+00
   1.000000E+00   1.000000E+00   1.000000E+00   1.000000E+00   1.000000E+00   1.000000E+00   1.000000E+00   1.000000E+00
   1.000000E+00   1.000000E+00   1.000000E+00   1.000000E+00   1.000000E+00   1.000000E+00   1.000000E+00   1.000000E+00
   1.000000E+00   1.000000E+00   1.000000E+00   1.000000E+00   1.000000E+00   1.000000E+00   1.000000E+00   1.000000E+00
   1.000000E+00   1.000000E+00   1.000000E+00   1.000000E+00   1.000000E+00   1.000000E+00   1.000000E+00   1.000000E+00
   1.000000E+00   1.000000E+00   1.000000E+00   1.000000E+00   1.000000E+00   1.000000E+00   1.000000E+00   1.000000E+00
   1.000000E+00   1.000000E+00   1.000000E+00   1.000000E+00   1.000000E+00   1.000000E+00   1.000000E+00   1.000000E+00
   1.000000E+00   1.000000E+00   1.000000E+00   1.000000E+00   1.000000E+00   1.000000E+00   1.000000E+00   1.000000E+00
   1.000000E+00   1.000000E+00   1.000000E+00   1.000000E+00   1.000000E+00   1.000000E+00   1.000000E+00   1.000000E+00
INTERNAL               1   (8E15.6) -1 #vka layer 2                   
   1.000000E-01   1.000000E-01  -1.000000E+00  -1.000000E+00  -1.000000E+00  -1.000000E+00  -1.000000E+00  -1.000000E+00
  -1.000000E+00   1.000000E-01  -1.000000E+00  -1.000000E+00  -1.000000E+00  -1.000000E+00  -1.000000E+00  -1.000000E+00
   1.000000E-01   1.000000E-01   1.000000E-01  -1.000000E+00  -1.000000E+00  -1.000000E+00  -1.000000E+00  -1.000000E+00
   1.000000E-01   1.000000E-01   1.000000E-01   1.000000E-01  -1.000000E+00  -1.000000E+00  -1.000000E+00  -1.000000E+00
  -1.000000E+00   1.000000E-01   1.000000E-01   1.000000E-01   1.000000E-01   1.000000E-01  -1.000000E+00  -1.000000E+00
  -1.000000E+00   1.000000E-01   1.000000E-01   1.000000E-01   1.000000E-01   1.000000E-01  -1.000000E+00  -1.000000E+00
  -1.000000E+00   1.000000E-01   1.000000E-01   1.000000E-01   1.000000E-01   1.000000E-01   1.000000E-01  -1.000000E+00
  -1.000000E+00   2.000000E-04   1.000000E-01   1.000000E-01   1.000000E-01   1.000000E-01   1.000000E-01  -1.000000E+00
  -1.000000E+00   2.000000E-04   1.000000E-01   1.000000E-01   2.000000E-04   1.000000E-01   1.000000E-01  -1.000000E+00
  -1.000000E+00   2.000000E-04   1.000000E-01   1.000000E-01   1.000000E-01   1.000000E-01   1.000000E-01  -1.000000E+00
  -1.000000E+00   2.000000E-04   2.000000E-04   1.000000E-01   1.000000E-01   2.000000E-04   2.000000E-04  -1.000000E+00
   2.000000E-04   2.000000E-04   1.000000E-01   2.000000E-04   2.000000E-04   2.000000E-04  -1.000000E+00  -1.000000E+00
  -1.000000E+00   2.000000E-04   2.000000E-04  -1.000000E+00  -1.000000E+00  -1.000000E+00  -1.000000E+00  -1.000000E+00
  -1.000000E+00  -1.000000E+00  -1.000000E+00  -1.000000E+00  -1.000000E+00  -1.000000E+00  -1.000000E+00  -1.000000E+00
INTERNAL               1   (8E15.6) -1 #hk layer 3                    
   1.000000E+00   1.000000E+00   1.000000E+00   1.000000E+00   1.000000E+00   1.000000E+00   1.000000E+00   1.000000E+00
   1.000000E+00   1.000000E+00   1.000000E+00   1.000000E+00   1.000000E+00   1.000000E+00   1.000000E+00   1.000000E+00
   1.000000E+00   1.000000E+00   1.000000E+00   1.000000E+00   1.000000E+00   1.000000E+00   1.000000E+00   1.000000E+00
   1.000000E+00   1.000000E+00   1.000000E+00   1.000000E+00   1.000000E+00   1.000000E+00   1.000000E+00   1.000000E+00
   1.000000E+00   1.000000E+00   1.000000E+00   1.000000E+00   1.000000E+00   1.000000E+00   1.000000E+00   1.000000E+00
   1.000000E+00   1.000000E+00   1.000000E+00   1.000000E+00   1.000000E+00   1.000000E+00   1.000000E+00   1.000000E+00
   1.000000E+00   1.000000E+00   1.000000E+00   1.000000E+00   1.000000E+00   1.000000E+00   1.000000E+00   1.000000E+00
   1.000000E+00   1.000000E+00   1.000000E+00   1.000000E+00   1.000000E+00   1.000000E+00   1.000000E+00   1.000000E+00
   1.000000E+00   1.000000E+00   1.000000E+00   1.000000E+00   1.000000E+00   1.000000E+00   1.000000E+00   1.000000E+00
   1.000000E+00   1.000000E+00   1.000000E+00   1.000000E+00   1.000000E+00   1.000000E+00   1.000000E+00   1.000000E+00
   1.000000E+00   1.000000E+00   1.000000E+00   1.000000E+00   1.000000E+00   1.000000E+00   1.000000E+00   1.000000E+00
   1.000000E+00   1.000000E+00   1.000000E+00   1.000000E+00   1.000000E+00   1.000000E+00   1.000000E+00   1.000000E+00
   1.000000E+00   1.000000E+00   1.000000E+00   1.000000E+00   1.000000E+00   1.000000E+00   1.000000E+00   1.000000E+00
   1.000000E+00   1.000000E+00   1.000000E+00   1.000000E+00   1.000000E+00   1.000000E+00   1.000000E+00   1.000000E+00
INTERNAL               1   (8E15.6) -1 #vka layer 3                   
   1.000000E-01   1.000000E-01  -1.000000E+00  -1.000000E+00  -1.000000E+00  -1.000000E+00  -1.000000E+00  -1.000000E+00
  -1.000000E+00   1.000000E-01  -1.000000E+00  -1.000000E+00  -1.000000E+00  -1.000000E+00  -1.000000E+00  -1.000000E+00
   1.000000E-01   1.000000E-01   1.000000E-01  -1.000000E+00  -1.000000E+00  -1.000000E+00  -1.000000E+00  -1.000000E+00
   1.000000E-01   1.000000E-01   1.000000E-01   1.000000E-01  -1.000000E+00  -1.000000E+00  -1.000000E+00  -1.000000E+00
  -1.000000E+00   1.000000E-01   1.000000E-01   1.000000E-01   1.000000E-01   1.000000E-01  -1.000000E+00  -1.000000E+00
  -1.000000E+00   1.000000E-01   1.000000E-01   1.000000E-01   1.000000E-01   1.000000E-01  -1.000000E+00  -1.000000E+00
  -1.000000E+00   1.000000E-01   1.000000E-01   1.000000E-01   1.000000E-01   1.000000E-01   1.000000E-01  -1.000000E+00
  -1.000000E+00   2.000000E-04   1.000000E-01   1.000000E-01   1.000000E-01   1.000000E-01   1.000000E-01  -1.000000E+00
  -1.000000E+00   2.000000E-04   1.000000E-01   1.000000E-01   2.000000E-04   1.000000E-01   1.000000E-01  -1.000000E+00
  -1.000000E+00   2.000000E-04   1.000000E-01   1.000000E-01   1.000000E-01   1.000000E-01   1.000000E-01  -1.000000E+00
  -1.000000E+00   2.000000E-04   2.000000E-04   1.000000E-01   1.000000E-01   2.000000E-04   2.000000E-04  -1.000000E+00
   2.000000E-04   2.000000E-04   1.000000E-01   2.000000E-04   2.000000E-04   2.000000E-04  -1.000000E+00  -1.000000E+00
  -1.000000E+00   2.000000E-04   2.000000E-04  -1.000000E+00  -1.000000E+00  -1.000000E+00  -1.000000E+00  -1.000000E+00
  -1.000000E+00  -1.000000E+00  -1.000000E+00  -1.000000E+00  -1.000000E+00  -1.000000E+00  -1.000000E+00  -1.000000E+00
INTERNAL               1   (8E15.6) -1 #hk layer 4                    
   1.000000E+00   4.250000E+01   1.000000E+00   1.000000E+00   1.000000E+00   1.000000E+00   1.000000E+00   1.000000E+00
   1.000000E+00   4.250000E+01   1.000000E+00   1.000000E+00   1.000000E+00   1.000000E+00   1.000000E+00   1.000000E+00
   1.000000E+00   4.250000E+01   4.250000E+01   1.000000E+00   1.000000E+00   1.000000E+00   1.000000E+00   1.000000E+00
   1.000000E+00   4.250000E+01   4.250000E+01   4.250000E+01   1.000000E+00   1.000000E+00   1.000000E+00   1.000000E+00
   1.000000E+00   4.250000E+01   4.250000E+01   4.250000E+01   4.250000E+01   4.250000E+01   1.000000E+00   1.000000E+00
   1.000000E+00   4.250000E+01   4.250000E+01   1.000000E+00   4.250000E+01   4.250000E+01   1.000000E+00   1.000000E+00
   1.000000E+00   4.250000E+01   4.250000E+01   1.000000E+00   4.250000E+01   1.000000E+00   4.250000E+01   1.000000E+00
   1.000000E+00   1.000000E+00   1.000000E+00   1.000000E+00   1.000000E+00   1.000000E+00   4.250000E+01   1.000000E+00
   1.000000E+00   1.000000E+00   1.000000E+00   4.250000E+01   1.000000E+00   1.000000E+00   1.000000E+00   1.000000E+00
   1.000000E+00   1.000000E+00   4.250000E+01   4.250000E+01   1.000000E+00   1.000000E+00   1.000000E+00   1.000000E+00
   1.000000E+00   1.000000E+00   1.000000E+00   1.000000E+00   4.250000E+01   1.000000E+00   1.000000E+00   1.000000E+00
   1.000000E+00   1.000000E+00   6.750000E+01   1.000000E+00   1.000000E+00   1.000000E+00   1.000000E+00   1.000000E+00
   1.000000E+00   1.000000E+00   1.000000E+00   1.000000E+00   1.000000E+00   1.000000E+00   1.000000E+00   1.000000E+00
   1.000000E+00   1.000000E+00   1.000000E+00   1.000000E+00   1.000000E+00   1.000000E+00   1.000000E+00   1.000000E+00
INTERNAL               1   (8E15.6) -1 #vka layer 4                   
   1.000000E-01   2.500250E+00  -1.000000E+00  -1.000000E+00  -1.000000E+00  -1.000000E+00  -1.000000E+00  -1.000000E+00
  -1.000000E+00   2.500250E+00  -1.000000E+00  -1.000000E+00  -1.000000E+00  -1.000000E+00  -1.000000E+00  -1.000000E+00
   2.000000E-04   2.500250E+00   2.500250E+00  -1.000000E+00  -1.000000E+00  -1.000000E+00  -1.000000E+00  -1.000000E+00
   2.000000E-04   2.500250E+00   2.500250E+00   2.500250E+00  -1.000000E+00  -1.000000E+00  -1.000000E+00  -1.000000E+00
  -1.000000E+00   2.500250E+00   2.500250E+00   2.500250E+00   2.500250E+00   2.500250E+00  -1.000000E+00  -1.000000E+00
  -1.000000E+00   2.500250E+00   2.500250E+00   2.000000E-04   2.500250E+00   2.500250E+00  -1.000000E+00  -1.000000E+00
  -1.000000E+00   2.500250E+00   2.500250E+00   2.000000E-04   2.500250E+00   2.000000E-04   2.500250E+00  -1.000000E+00
  -1.000000E+00   2.000000E-04   2.000000E-04   2.000000E-04   2.000000E-04   2.000000E-04   2.500250E+00  -1.000000E+00
  -1.000000E+00   2.000000E-04   2.000000E-04   2.500250E+00   2.000000E-04   2.000000E-04   2.000000E-04  -1.000000E+00
  -1.000000E+00   2.000000E-04   2.500250E+00   2.500250E+00   2.000000E-04   2.000000E-04   2.000000E-04  -1.000000E+00
  -1.000000E+00   2.000000E-04   2.000000E-04   2.000000E-04   2.500250E+00   2.000000E-04   2.000000E-04  -1.000000E+00
   2.000000E-04   2.000000E-04   2.505000E+00   2.000000E-04   2.000000E-04   2.000000E-04  -1.000000E+00  -1.000000E+00
  -1.000000E+00   2.000000E-04   2.000000E-04  -1.000000E+00  -1.000000E+00  -1.000000E+00  -1.000000E+00  -1.000000E+00
  -1.000000E+00  -1.000000E+00  -1.000000E+00  -1.000000E+00  -1.000000E+00  -1.000000E+00  -1.000000E+00  -1.000000E+00
INTERNAL               1   (8E15.6) -1 #hk layer 5                    
   6.750000E+01   4.250000E+01   1.000000E+00   1.000000E+00   1.000000E+00   1.000000E+00   1.000000E+00   1.000000E+00
   1.000000E+00   4.250000E+01   1.000000E+00   1.000000E+00   1.000000E+00   1.000000E+00   1.000000E+00   1.000000E+00
   1.000000E+00   4.250000E+01   4.250000E+01   1.000000E+00   1.000000E+00   1.000000E+00   1.000000E+00   1.000000E+00
   1.000000E+00   4.250000E+01   4.250000E+01   4.250000E+01   1.000000E+00   1.000000E+00   1.000000E+00   1.000000E+00
   1.000000E+00   4.250000E+01   4.250000E+01   4.250000E+01   4.250000E+01   4.250000E+01   1.000000E+00   1.000000E+00
   1.000000E+00   4.250000E+01   4.250000E+01   1.000000E+00   4.250000E+01   4.250000E+01   1.000000E+00   1.000000E+00
   1.000000E+00   4.250000E+01   4.250000E+01   1.000000E+00   4.250000E+01   1.000000E+00   4.250000E+01   1.000000E+00
   1.000000E+00   1.000000E+00   1.000000E+00   1.000000E+00   1.000000E+00   1.000000E+00   4.250000E+01   1.000000E+00
   1.000000E+00   1.000000E+00   1.000000E+00   4.250000E+01   1.000000E+00   1.000000E+00   1.000000E+00   1.000000E+00
   1.000000E+00   1.000000E+00   4.250000E+01   4.250000E+01   1.000000E+00   1.000000E+00   1.000000E+00   1.000000E+00
   1.000000E+00   1.000000E+00   1.000000E+00   1.000000E+00   4.250000E+01   1.000000E+00   1.000000E+00   1.000000E+00
   1.000000E+00   1.000000E+00   6.750000E+01   1.000000E+00   1.000000E+00   1.000000E+00   1.000000E+00   1.000000E+00
   1.000000E+00   1.000000E+00   1.000000E+00   1.000000E+00   1.000000E+00   1.000000E+00   1.000000E+00   1.000000E+00
   1.000000E+00   1.000000E+00   1.000000E+00   1.000000E+00   1.000000E+00   1.000000E+00   1.000000E+00   1.000000E+00
INTERNAL               1   (8E15.6) -1 #vka layer 5                   
   2.505000E+00   2.500250E+00  -1.000000E+00  -1.000000E+00  -1.000000E+00  -1.000000E+00  -1.000000E+00  -1.000000E+00
  -1.000000E+00   2.500250E+00  -1.000000E+00  -1.000000E+00  -1.000000E+00  -1.000000E+00  -1.000000E+00  -1.000000E+00
   2.000000E-04   2.500250E+00   2.500250E+00  -1.000000E+00  -1.000000E+00  -1.000000E+00  -1.000000E+00  -1.000000E+00
   2.000000E-04   2.500250E+00   2.500250E+00   2.500250E+00  -1.000000E+00  -1.000000E+00  -1.000000E+00  -1.000000E+00
  -1.000000E+00   2.500250E+00   2.500250E+00   2.500250E+00   2.500250E+00   2.500250E+00  -1.000000E+00  -1.000000E+00
  -1.000000E+00   2.500250E+00   2.500250E+00   2.000000E-04   2.500250E+00   2.500250E+00  -1.000000E+00  -1.000000E+00
  -1.000000E+00   2.500250E+00   2.500250E+00   2.000000E-04   2.500250E+00   2.000000E-04   2.500250E+00  -1.000000E+00
  -1.000000E+00   2.000000E-04   2.000000E-04   2.000000E-04   2.000000E-04   2.000000E-04   2.500250E+00  -1.000000E+00
  -1.000000E+00   2.000000E-04   2.000000E-04   2.500250E+00   2.000000E-04   2.000000E-04   2.000000E-04  -1.000000E+00
  -1.000000E+00   2.000000E-04   2.500250E+00   2.500250E+00   2.000000E-04   2.000000E-04   2.000000E-04  -1.000000E+00
  -1.000000E+00   2.000000E-04   2.000000E-04   2.000000E-04   2.500250E+00   2.000000E-04   2.000000E-04  -1.000000E+00
   2.000000E-04   2.000000E-04   2.505000E+00   2.000000E-04   2.000000E-04   2.000000E-04  -1.000000E+00  -1.000000E+00
  -1.000000E+00   2.000000E-04   2.000000E-04  -1.000000E+00  -1.000000E+00  -1.000000E+00  -1.000000E+00  -1.000000E+00
  -1.000000E+00  -1.000000E+00  -1.000000E+00  -1.000000E+00  -1.000000E+00  -1.000000E+00  -1.000000E+00  -1.000000E+00
INTERNAL               1   (8E15.6) -1 #hk layer 6                    
   6.750000E+01   6.750000E+01   1.000000E+00   1.000000E+00   1.000000E+00   1.000000E+00   1.000000E+00   1.000000E+00
   1.000000E+00   6.750000E+01   1.000000E+00   1.000000E+00   1.000000E+00   1.000000E+00   1.000000E+00   1.000000E+00
   1.000000E+00   6.750000E+01   6.750000E+01   1.000000E+00   1.000000E+00   1.000000E+00   1.000000E+00   1.000000E+00
   1.000000E+00   6.750000E+01   6.750000E+01   6.750000E+01   1.000000E+00   1.000000E+00   1.000000E+00   1.000000E+00
   1.000000E+00   6.750000E+01   6.750000E+01   6.750000E+01   6.750000E+01   6.750000E+01   1.000000E+00   1.000000E+00
   1.000000E+00   6.750000E+01   6.750000E+01   1.000000E+00   6.750000E+01   6.750000E+01   1.000000E+00   1.000000E+00
   1.000000E+00   6.750000E+01   6.750000E+01   1.000000E+00   6.750000E+01   1.000000E+00   6.750000E+01   1.000000E+00
   1.000000E+00   1.000000E+00   1.000000E+00   1.000000E+00   1.000000E+00   1.000000E+00   6.750000E+01   1.000000E+00
   1.000000E+00   1.000000E+00   1.000000E+00   1.000000E+00   1.000000E+00   1.000000E+00   1.000000E+00   1.000000E+00
   1.000000E+00   1.000000E+00   1.000000E+00   1.000000E+00   1.000000E+00   1.000000E+00   1.000000E+00   1.000000E+00
   1.000000E+00   1.000000E+00   1.000000E+00   1.000000E+00   1.000000E+00   1.000000E+00   1.000000E+00   1.000000E+00
   1.000000E+00   1.000000E+00   6.750000E+01   1.000000E+00   1.000000E+00   1.000000E+00   1.000000E+00   1.000000E+00
   1.000000E+00   1.000000E+00   1.000000E+00   1.000000E+00   1.000000E+00   1.000000E+00   1.000000E+00   1.000000E+00
   1.000000E+00   1.000000E+00   1.000000E+00   1.000000E+00   1.000000E+00   1.000000E+00   1.000000E+00   1.000000E+00
INTERNAL               1   (8E15.6) -1 #vka layer 6                   
   2.505000E+00   2.505000E+00  -1.000000E+00  -1.000000E+00  -1.000000E+00  -1.000000E+00  -1.000000E+00  -1.000000E+00
  -1.000000E+00   2.505000E+00  -1.000000E+00  -1.000000E+00  -1.000000E+00  -1.000000E+00  -1.000000E+00  -1.000000E+00
   2.000000E-04   2.505000E+00   2.505000E+00  -1.000000E+00  -1.000000E+00  -1.000000E+00  -1.000000E+00  -1.000000E+00
   2.000000E-04   2.505000E+00   2.505000E+00   2.505000E+00  -1.000000E+00  -1.000000E+00  -1.000000E+00  -1.000000E+00
  -1.000000E+00   2.505000E+00   2.505000E+00   2.505000E+00   2.505000E+00   2.505000E+00  -1.000000E+00  -1.000000E+00
  -1.000000E+00   2.505000E+00   2.505000E+00   2.000000E-04   2.505000E+00   2.505000E+00  -1.000000E+00  -1.000000E+00
  -1.000000E+00   2.505000E+00   2.505000E+00   2.000000E-04   2.505000E+00   2.000000E-04   2.505000E+00  -1.000000E+00
  -1.000000E+00   2.000000E-04   2.000000E-04   2.000000E-04   2.000000E-04   2.000000E-04   2.505000E+00  -1.000000E+00
  -1.000000E+00   2.000000E-04   2.000000E-04   2.000000E-04   2.000000E-04   2.000000E-04   2.000000E-04  -1.000000E+00
  -1.000000E+00   2.000000E-04   2.000000E-04   2.000000E-04   2.000000E-04   2.000000E-04   2.000000E-04  -1.000000E+00
  -1.000000E+00   2.000000E-04   2.000000E-04   2.000000E-04   2.000000E-04   2.000000E-04   2.000000E-04  -1.000000E+00
   2.000000E-04   2.000000E-04   2.505000E+00   2.000000E-04   2.000000E-04   2.000000E-04  -1.000000E+00  -1.000000E+00
  -1.000000E+00   2.000000E-04   2.000000E-04  -1.000000E+00  -1.000000E+00  -1.000000E+00  -1.000000E+00  -1.000000E+00
  -1.000000E+00  -1.000000E+00  -1.000000E+00  -1.000000E+00  -1.000000E+00  -1.000000E+00  -1.000000E+00  -1.000000E+00
INTERNAL               1   (8E15.6) -1 #hk layer 7                    
   1.000000E+00   1.000000E+00   1.000000E+00   1.000000E+00   1.000000E+00   1.000000E+00   1.000000E+00   1.000000E+00
   1.000000E+00   1.000000E+00   1.000000E+00   1.000000E+00   1.000000E+00   1.000000E+00   1.000000E+00   1.000000E+00
   1.000000E+00   1.000000E+00   1.000000E+00   1.000000E+00   1.000000E+00   1.000000E+00   1.000000E+00   1.000000E+00
   1.000000E+00   1.000000E+00   1.000000E+00   1.000000E+00   1.000000E+00   1.000000E+00   1.000000E+00   1.000000E+00
   1.000000E+00   1.000000E+00   1.000000E+00   1.000000E+00   1.000000E+00   1.000000E+00   1.000000E+00   1.000000E+00
   1.000000E+00   1.000000E+00   1.000000E+00   1.000000E+00   1.000000E+00   1.000000E+00   1.000000E+00   1.000000E+00
   1.000000E+00   1.000000E+00   1.000000E+00   1.000000E+00   1.000000E+00   1.000000E+00   1.000000E+00   1.000000E+00
   1.000000E+00   1.000000E+00   1.000000E+00   1.000000E+00   1.000000E+00   1.000000E+00   1.000000E+00   1.000000E+00
   1.000000E+00   1.000000E+00   1.000000E+00   1.000000E+00   1.000000E+00   1.000000E+00   1.000000E+00   1.000000E+00
   1.000000E+00   1.000000E+00   1.000000E+00   1.000000E+00   1.000000E+00   1.000000E+00   1.000000E+00   1.000000E+00
   1.000000E+00   1.000000E+00   1.000000E+00   1.000000E+00   1.000000E+00   1.000000E+00   1.000000E+00   1.000000E+00
   1.000000E+00   1.000000E+00   1.000000E+00   1.000000E+00   1.000000E+00   1.000000E+00   1.000000E+00   1.000000E+00
   1.000000E+00   1.000000E+00   1.000000E+00   1.000000E+00   1.000000E+00   1.000000E+00   1.000000E+00   1.000000E+00
   1.000000E+00   1.000000E+00   1.000000E+00   1.000000E+00   1.000000E+00   1.000000E+00   1.000000E+00   1.000000E+00
INTERNAL               1   (8E15.6) -1 #vka layer 7                   
   2.000000E-04   2.000000E-04  -1.000000E+00  -1.000000E+00  -1.000000E+00  -1.000000E+00  -1.000000E+00  -1.000000E+00
  -1.000000E+00   2.000000E-04  -1.000000E+00  -1.000000E+00  -1.000000E+00  -1.000000E+00  -1.000000E+00  -1.000000E+00
   2.000000E-04   2.000000E-04   2.000000E-04  -1.000000E+00  -1.000000E+00  -1.000000E+00  -1.000000E+00  -1.000000E+00
   2.000000E-04   2.000000E-04   2.000000E-04   2.000000E-04  -1.000000E+00  -1.000000E+00  -1.000000E+00  -1.000000E+00
  -1.000000E+00   2.000000E-04   2.000000E-04   2.000000E-04   2.000000E-04   2.000000E-04  -1.000000E+00  -1.000000E+00
  -1.000000E+00   2.000000E-04   2.000000E-04   2.000000E-04   2.000000E-04   2.000000E-04  -1.000000E+00  -1.000000E+00
  -1.000000E+00   2.000000E-04   2.000000E-04   2.000000E-04   2.000000E-04   2.000000E-04   2.000000E-04  -1.000000E+00
  -1.000000E+00   2.000000E-04   2.000000E-04   2.000000E-04   2.000000E-04   2.000000E-04   2.000000E-04  -1.000000E+00
  -1.000000E+00   2.000000E-04   2.000000E-04   2.000000E-04   2.000000E-04   2.000000E-04   2.000000E-04  -1.000000E+00
  -1.000000E+00   2.000000E-04   2.000000E-04   2.000000E-04   2.000000E-04   2.000000E-04   2.000000E-04  -1.000000E+00
  -1.000000E+00   2.000000E-04   2.000000E-04   2.000000E-04   2.000000E-04   2.000000E-04   2.000000E-04  -1.000000E+00
   2.000000E-04   2.000000E-04   2.000000E-04   2.000000E-04   2.000000E-04   2.000000E-04  -1.000000E+00  -1.000000E+00
  -1.000000E+00   2.000000E-04   2.000000E-04  -1.000000E+00  -1.000000E+00  -1.000000E+00  -1.000000E+00  -1.000000E+00
  -1.000000E+00  -1.000000E+00  -1.000000E+00  -1.000000E+00  -1.000000E+00  -1.000000E+00  -1.000000E+00  -1.000000E+00
