# Lmt input file for MODFLOW, generated by Flopy.
OUTPUT_FILE_NAME mt3d_link.ftl
OUTPUT_FILE_UNIT         54
OUTPUT_FILE_HEADER extended
OUTPUT_FILE_FORMAT unformatted
