# Well file for MODFLOW, generated by Flopy.
       105        53
       105         0 # stress period 0
         4        72        29  -8.2188770E-02
         3        72        29  -4.1094384E+00
         4        99        29  -2.0937590E+01
         3        99        29  -2.5088123E+01
         6       100        30  -4.0888915E+00
         3       101        30  -4.1094385E-02
         4       101        31  -1.1465334E+01
         1       105        31  -6.1641578E-02
         4        52        32  -1.1173563E+02
         6        90        34  -2.4040215E+00
         3        52        35  -2.0845128E+02
         5        87        35  -5.3422704E+00
         4        88        36  -7.1504234E+01
         4        89        37  -1.3729634E+02
         6        93        37  -1.7119922E+02
         4        53        38  -9.2441818E+01
         4        59        38  -1.1960521E+02
         4        81        38  -3.5998684E+01
         4        44        39  -1.0164697E+02
         4        52        39  -2.3592287E+02
         4        56        39  -1.0684540E+00
         4        57        39  -4.8922867E+01
         4        68        39  -9.7516975E+01
         4        82        39  -1.7670586E+00
         6        55        40  -1.8063037E+02
         6        58        40  -1.5751479E+02
         4        62        40  -1.5285057E+02
         4        68        40  -2.7286673E+01
         3        74        40  -8.0729919E+01
         3        74        40  -9.7640259E+01
         4        76        40  -3.6430172E+01
         6        59        41  -9.5729370E+01
         6        59        41  -8.7428307E+01
         6        65        41  -2.0752666E+00
         6        65        41  -9.5236237E+01
         4        66        41  -4.5101089E+01
         6        69        41  -1.8163719E+01
         4        70        41  -1.4629602E+02
         6        71        41  -2.9177015E+00
         3        72        41  -1.6856917E+02
         4        75        41  -5.4676079E+01
         4        52        42  -4.0395782E+01
         6        58        42  -5.8764973E+00
         4        64        42  -5.8477310E+01
         6        65        42  -2.2334799E+01
         4        66        42  -5.5087025E+01
         6        69        42  -3.0820790E-01
         6        69        42  -3.6306889E+01
         4        70        42  -6.9922096E+01
         7        72        42  -4.2964180E+01
         4        72        42  -1.1566015E+02
         4        72        42  -4.4895618E+01
         4        46        43  -1.1198220E+02
         6        54        43  -4.7053070E+00
         6        57        43  -1.8765752E+02
         6        64        43  -1.7382925E+01
         4        64        43  -8.1572361E+00
         3        66        43  -3.7560268E+01
         3        68        43  -1.0466740E+02
         3        68        43  -1.5114516E+02
         3        69        43  -3.0204375E+00
         4        69        43  -8.2188773E-01
         4        47        44  -1.1469444E+02
         4        63        44  -3.5135700E+01
         4        64        44  -5.5128120E+01
         4        66        44  -5.2950115E+01
         6        66        44  -2.1389627E+01
         4        66        44  -1.7937700E+01
         4        66        44  -2.0547193E-02
         3        46        45  -9.6366339E+00
         4        51        45  -2.7964729E+01
         6        66        45  -6.6141411E+01
         4        50        47  -8.3873642E+01
         3        43        49  -2.0547192E+00
         4        52        52  -2.9382486E+01
         4        54        53  -1.5652852E+02
         6        57        53  -9.8667618E+01
         4        54        54  -4.5203824E+00
         5        39        20   0.0000000E+00
         4        39        20   0.0000000E+00
         2        39        20   0.0000000E+00
         2        97        23   0.0000000E+00
         6        25        25   0.0000000E+00
         4        25        25   0.0000000E+00
         2        25        25   0.0000000E+00
         2        25        25   0.0000000E+00
         4        49        32   0.0000000E+00
         6        99        33   0.0000000E+00
         4        99        33   0.0000000E+00
         6        85        38   0.0000000E+00
         1        85        38   0.0000000E+00
         6        56        41   0.0000000E+00
         4        56        48   0.0000000E+00
         4        50        49   0.0000000E+00
         2        50        49   0.0000000E+00
         6        55        57   0.0000000E+00
         1        55        57   0.0000000E+00
         3        81        59   0.0000000E+00
         7        85        62   0.0000000E+00
         3        66        66   0.0000000E+00
         1        66        66   0.0000000E+00
         3        80        66   0.0000000E+00
         1        80        66   0.0000000E+00
         7        74        69   0.0000000E+00
         1        74        69   0.0000000E+00
