# RCH for MODFLOW, generated by Flopy.
         3        53
         1        -1 # Stress period 1
INTERNAL               1  (76E15.6) -1 #rech_1                        
   1.163836E-03   1.163836E-03   1.163836E-03   1.163836E-03   1.163836E-03   1.163836E-03   1.163836E-03   1.163836E-03   1.163836E-03   1.163836E-03   1.163836E-03   1.163836E-03   1.163836E-03   1.163836E-03   1.163836E-03   1.163836E-03   1.163836E-03   1.163836E-03   1.163836E-03   1.163836E-03   1.163836E-03   1.163836E-03   1.163836E-03   1.163836E-03   1.163836E-03   1.163836E-03   1.163836E-03   1.163836E-03   1.163836E-03   1.163836E-03   1.163836E-03   1.163836E-03   1.163836E-03   1.163836E-03   1.163836E-03   1.163836E-03   1.163836E-03   1.163836E-03   1.163836E-03   1.163836E-03   1.163836E-03   1.163836E-03   1.163836E-03   1.163836E-03   1.163836E-03   1.163836E-03   1.163836E-03   1.163836E-03   1.163836E-03   1.163836E-03   1.163836E-03   1.163836E-03   1.163836E-03   1.163836E-03   1.163836E-03   1.163836E-03   1.163836E-03   1.163836E-03   1.163836E-03   1.163836E-03   1.163836E-03   1.163836E-03   1.163836E-03   1.163836E-03   1.163836E-03   1.163836E-03   1.163836E-03   1.163836E-03   1.163836E-03   1.163836E-03   1.163836E-03   1.163836E-03   1.163836E-03   1.163836E-03   1.163836E-03   1.163836E-03
   1.163836E-03   1.163836E-03   1.163836E-03   1.163836E-03   1.163836E-03   1.163836E-03   1.163836E-03   1.163836E-03   1.047452E-05   1.047452E-05   1.163836E-03   1.047452E-05   1.163836E-03   1.163836E-03   1.163836E-03   1.163836E-03   1.163836E-03   1.163836E-03   1.163836E-03   1.163836E-03   1.163836E-03   1.163836E-03   1.163836E-03   1.163836E-03   1.163836E-03   1.163836E-03   1.163836E-03   1.163836E-03   1.163836E-03   1.163836E-03   1.163836E-03   1.163836E-03   1.163836E-03   1.163836E-03   1.163836E-03   1.163836E-03   1.163836E-03   1.163836E-03   1.163836E-03   1.163836E-03   1.163836E-03   1.163836E-03   1.163836E-03   1.163836E-03   1.163836E-03   1.163836E-03   1.163836E-03   1.163836E-03   1.163836E-03   1.163836E-03   1.163836E-03   1.163836E-03   1.163836E-03   1.163836E-03   1.163836E-03   1.163836E-03   1.163836E-03   1.163836E-03   1.163836E-03   1.163836E-03   1.163836E-03   1.163836E-03   1.163836E-03   1.163836E-03   1.163836E-03   1.163836E-03   1.163836E-03   1.163836E-03   1.163836E-03   1.163836E-03   1.163836E-03   1.163836E-03   1.163836E-03   1.163836E-03   1.163836E-03   1.163836E-03
   1.163836E-03   1.163836E-03   1.163836E-03   1.163836E-03   1.163836E-03   1.163836E-03   1.047452E-05   1.047452E-05   1.047452E-05   1.047452E-05   1.047452E-05   1.047452E-05   1.047452E-05   1.163836E-03   1.163836E-03   1.163836E-03   1.163836E-03   1.163836E-03   1.163836E-03   1.163836E-03   1.163836E-03   1.163836E-03   1.163836E-03   1.163836E-03   1.163836E-03   1.163836E-03   1.163836E-03   1.163836E-03   1.163836E-03   1.163836E-03   1.163836E-03   1.163836E-03   1.163836E-03   1.163836E-03   1.163836E-03   1.163836E-03   1.163836E-03   1.163836E-03   1.163836E-03   1.163836E-03   1.163836E-03   1.163836E-03   1.163836E-03   1.163836E-03   1.163836E-03   1.163836E-03   1.163836E-03   1.163836E-03   1.163836E-03   1.163836E-03   1.163836E-03   1.163836E-03   1.163836E-03   1.163836E-03   1.163836E-03   1.163836E-03   1.163836E-03   1.163836E-03   1.163836E-03   1.163836E-03   1.163836E-03   1.163836E-03   1.163836E-03   1.163836E-03   1.163836E-03   1.163836E-03   1.163836E-03   1.163836E-03   1.163836E-03   1.163836E-03   1.163836E-03   1.163836E-03   1.163836E-03   1.163836E-03   1.163836E-03   1.163836E-03
   1.163836E-03   1.163836E-03   1.163836E-03   1.163836E-03   1.163836E-03   1.047452E-05   1.047452E-05   1.047452E-05   1.047452E-05   1.047452E-05   1.047452E-05   1.047452E-05   1.047452E-05   1.163836E-03   1.163836E-03   1.163836E-03   1.163836E-03   1.163836E-03   1.163836E-03   1.163836E-03   1.163836E-03   1.163836E-03   1.163836E-03   1.163836E-03   1.163836E-03   1.163836E-03   1.163836E-03   1.163836E-03   1.163836E-03   1.163836E-03   1.163836E-03   1.163836E-03   1.163836E-03   1.163836E-03   1.163836E-03   1.163836E-03   1.163836E-03   1.163836E-03   1.163836E-03   1.163836E-03   1.163836E-03   1.163836E-03   1.163836E-03   1.163836E-03   1.163836E-03   1.163836E-03   1.163836E-03   1.163836E-03   1.163836E-03   1.163836E-03   1.163836E-03   1.163836E-03   1.163836E-03   1.163836E-03   1.163836E-03   1.163836E-03   1.163836E-03   1.163836E-03   1.163836E-03   1.163836E-03   1.163836E-03   1.163836E-03   1.163836E-03   1.163836E-03   1.163836E-03   1.163836E-03   1.163836E-03   1.163836E-03   1.163836E-03   1.163836E-03   1.163836E-03   1.163836E-03   1.163836E-03   1.163836E-03   1.163836E-03   1.163836E-03
   1.163836E-03   1.163836E-03   1.163836E-03   1.163836E-03   1.047452E-05   1.047452E-05   1.047452E-05   1.047452E-05   1.047452E-05   1.047452E-05   1.047452E-05   1.047452E-05   1.047452E-05   1.047452E-05   1.163836E-03   1.047452E-05   1.163836E-03   1.163836E-03   1.163836E-03   1.163836E-03   1.163836E-03   1.163836E-03   1.163836E-03   1.163836E-03   1.163836E-03   1.163836E-03   1.163836E-03   1.163836E-03   1.163836E-03   1.163836E-03   1.163836E-03   1.163836E-03   1.163836E-03   1.163836E-03   1.163836E-03   1.163836E-03   1.163836E-03   1.163836E-03   1.163836E-03   1.163836E-03   1.163836E-03   1.163836E-03   1.163836E-03   1.163836E-03   1.163836E-03   1.163836E-03   1.163836E-03   1.163836E-03   1.163836E-03   1.163836E-03   1.163836E-03   1.163836E-03   1.163836E-03   1.163836E-03   1.163836E-03   1.163836E-03   1.163836E-03   1.163836E-03   1.163836E-03   1.163836E-03   1.163836E-03   1.163836E-03   1.163836E-03   1.163836E-03   1.163836E-03   1.163836E-03   1.163836E-03   1.163836E-03   1.163836E-03   1.163836E-03   1.163836E-03   1.163836E-03   1.163836E-03   1.163836E-03   1.163836E-03   1.163836E-03
   1.163836E-03   1.163836E-03   1.163836E-03   1.163836E-03   1.047452E-05   1.047452E-05   1.047452E-05   1.047452E-05   1.047452E-05   1.047452E-05   1.047452E-05   1.047452E-05   1.047452E-05   1.047452E-05   1.047452E-05   1.047452E-05   1.163836E-03   1.163836E-03   1.163836E-03   1.163836E-03   1.163836E-03   1.163836E-03   1.163836E-03   1.163836E-03   1.163836E-03   1.163836E-03   1.163836E-03   1.163836E-03   1.163836E-03   1.163836E-03   1.163836E-03   1.163836E-03   1.163836E-03   1.163836E-03   1.163836E-03   1.163836E-03   1.163836E-03   1.163836E-03   1.163836E-03   1.163836E-03   1.163836E-03   1.163836E-03   1.163836E-03   1.163836E-03   1.163836E-03   1.163836E-03   1.163836E-03   1.163836E-03   1.163836E-03   1.163836E-03   1.163836E-03   1.163836E-03   1.163836E-03   1.163836E-03   1.163836E-03   1.163836E-03   1.163836E-03   1.163836E-03   1.163836E-03   1.163836E-03   1.163836E-03   1.163836E-03   1.163836E-03   1.163836E-03   1.163836E-03   1.163836E-03   1.163836E-03   1.163836E-03   1.163836E-03   1.163836E-03   1.163836E-03   1.163836E-03   1.163836E-03   1.163836E-03   1.163836E-03   1.163836E-03
   1.163836E-03   1.163836E-03   1.163836E-03   1.163836E-03   1.047452E-05   1.047452E-05   1.047452E-05   1.047452E-05   1.047452E-05   1.047452E-05   1.047452E-05   1.047452E-05   1.047452E-05   1.047452E-05   1.047452E-05   1.047452E-05   1.163836E-03   1.163836E-03   1.163836E-03   1.163836E-03   1.163836E-03   1.163836E-03   1.163836E-03   1.163836E-03   1.163836E-03   1.163836E-03   1.163836E-03   1.163836E-03   1.163836E-03   1.163836E-03   1.163836E-03   1.163836E-03   1.163836E-03   1.163836E-03   1.163836E-03   1.163836E-03   1.163836E-03   1.163836E-03   1.163836E-03   1.163836E-03   1.163836E-03   1.163836E-03   1.163836E-03   1.163836E-03   1.163836E-03   1.163836E-03   1.163836E-03   1.163836E-03   1.163836E-03   1.163836E-03   1.163836E-03   1.163836E-03   1.163836E-03   1.163836E-03   1.163836E-03   1.163836E-03   1.163836E-03   1.163836E-03   1.163836E-03   1.163836E-03   1.163836E-03   1.163836E-03   1.163836E-03   1.163836E-03   1.163836E-03   1.163836E-03   1.163836E-03   1.163836E-03   1.163836E-03   1.163836E-03   1.163836E-03   1.163836E-03   1.163836E-03   1.163836E-03   1.163836E-03   1.163836E-03
   1.163836E-03   1.163836E-03   1.163836E-03   1.047452E-05   1.047452E-05   1.047452E-05   1.047452E-05   1.047452E-05   1.047452E-05   1.047452E-05   1.047452E-05   1.047452E-05   1.047452E-05   1.047452E-05   1.047452E-05   1.047452E-05   1.163836E-03   1.163836E-03   1.163836E-03   1.163836E-03   1.163836E-03   1.163836E-03   1.163836E-03   1.163836E-03   1.163836E-03   1.163836E-03   1.163836E-03   1.163836E-03   1.163836E-03   1.163836E-03   1.163836E-03   1.163836E-03   1.163836E-03   1.163836E-03   1.163836E-03   1.163836E-03   1.163836E-03   1.163836E-03   1.163836E-03   1.163836E-03   1.163836E-03   1.163836E-03   1.163836E-03   1.163836E-03   1.163836E-03   1.163836E-03   1.163836E-03   1.163836E-03   1.163836E-03   1.163836E-03   1.163836E-03   1.163836E-03   1.163836E-03   1.163836E-03   1.163836E-03   1.163836E-03   1.163836E-03   1.163836E-03   1.163836E-03   1.163836E-03   1.163836E-03   1.163836E-03   1.163836E-03   1.163836E-03   1.163836E-03   1.163836E-03   1.163836E-03   1.163836E-03   1.163836E-03   1.163836E-03   1.163836E-03   1.163836E-03   1.163836E-03   1.163836E-03   1.163836E-03   1.163836E-03
   1.163836E-03   1.163836E-03   1.163836E-03   1.047452E-05   1.047452E-05   1.047452E-05   1.047452E-05   1.047452E-05   1.047452E-05   1.047452E-05   1.047452E-05   1.047452E-05   1.047452E-05   1.047452E-05   1.047452E-05   1.163836E-03   1.163836E-03   1.163836E-03   1.163836E-03   1.163836E-03   1.163836E-03   1.163836E-03   1.163836E-03   1.163836E-03   1.163836E-03   1.163836E-03   1.163836E-03   1.163836E-03   1.163836E-03   1.163836E-03   1.163836E-03   1.163836E-03   1.163836E-03   1.163836E-03   1.163836E-03   1.163836E-03   1.163836E-03   1.163836E-03   1.163836E-03   1.163836E-03   1.163836E-03   1.163836E-03   1.163836E-03   1.163836E-03   1.163836E-03   1.163836E-03   1.163836E-03   1.163836E-03   1.163836E-03   1.163836E-03   1.163836E-03   1.163836E-03   1.163836E-03   1.163836E-03   1.163836E-03   1.163836E-03   1.163836E-03   1.163836E-03   1.163836E-03   1.163836E-03   1.163836E-03   1.163836E-03   1.163836E-03   1.163836E-03   1.163836E-03   1.163836E-03   1.163836E-03   1.163836E-03   1.163836E-03   1.163836E-03   1.163836E-03   1.163836E-03   1.163836E-03   1.163836E-03   1.163836E-03   1.163836E-03
   1.163836E-03   1.163836E-03   1.163836E-03   1.047452E-05   1.047452E-05   1.047452E-05   1.047452E-05   1.047452E-05   1.047452E-05   1.047452E-05   1.047452E-05   1.047452E-05   1.047452E-05   1.047452E-05   1.047452E-05   1.047452E-05   1.163836E-03   1.163836E-03   1.163836E-03   1.163836E-03   1.163836E-03   1.163836E-03   1.163836E-03   1.163836E-03   1.163836E-03   1.163836E-03   1.163836E-03   1.163836E-03   1.163836E-03   1.163836E-03   1.163836E-03   1.163836E-03   1.163836E-03   1.163836E-03   1.163836E-03   1.163836E-03   1.163836E-03   1.163836E-03   1.163836E-03   1.163836E-03   1.163836E-03   1.163836E-03   1.163836E-03   1.163836E-03   1.163836E-03   1.163836E-03   1.163836E-03   1.163836E-03   1.163836E-03   1.163836E-03   1.163836E-03   1.163836E-03   1.163836E-03   1.163836E-03   1.163836E-03   1.163836E-03   1.163836E-03   1.163836E-03   1.163836E-03   1.163836E-03   1.163836E-03   1.163836E-03   1.163836E-03   1.163836E-03   1.163836E-03   1.163836E-03   1.163836E-03   1.163836E-03   1.163836E-03   1.163836E-03   1.163836E-03   1.163836E-03   1.163836E-03   1.163836E-03   1.163836E-03   1.163836E-03
   1.163836E-03   1.163836E-03   1.163836E-03   1.047452E-05   1.047452E-05   1.047452E-05   1.047452E-05   1.047452E-05   1.047452E-05   1.047452E-05   1.047452E-05   1.047452E-05   1.047452E-05   1.047452E-05   1.047452E-05   1.047452E-05   1.163836E-03   1.163836E-03   1.163836E-03   1.163836E-03   1.163836E-03   1.163836E-03   1.163836E-03   1.163836E-03   1.163836E-03   1.163836E-03   1.163836E-03   1.163836E-03   1.163836E-03   1.163836E-03   1.163836E-03   1.163836E-03   1.163836E-03   1.163836E-03   1.163836E-03   1.163836E-03   1.163836E-03   1.163836E-03   1.163836E-03   1.163836E-03   1.163836E-03   1.163836E-03   1.163836E-03   1.163836E-03   1.163836E-03   1.163836E-03   1.163836E-03   1.163836E-03   1.163836E-03   1.163836E-03   1.163836E-03   1.163836E-03   1.163836E-03   1.163836E-03   1.163836E-03   1.163836E-03   1.163836E-03   1.163836E-03   1.163836E-03   1.163836E-03   1.163836E-03   1.163836E-03   1.163836E-03   1.163836E-03   1.163836E-03   1.163836E-03   1.163836E-03   1.163836E-03   1.163836E-03   1.163836E-03   1.163836E-03   1.163836E-03   1.163836E-03   1.163836E-03   1.163836E-03   1.163836E-03
   1.163836E-03   1.163836E-03   1.163836E-03   1.047452E-05   1.047452E-05   1.047452E-05   1.047452E-05   1.047452E-05   1.047452E-05   1.047452E-05   1.047452E-05   1.047452E-05   1.047452E-05   1.047452E-05   1.047452E-05   1.047452E-05   1.047452E-05   1.163836E-03   1.163836E-03   1.163836E-03   1.163836E-03   1.163836E-03   1.163836E-03   1.163836E-03   1.163836E-03   1.163836E-03   1.163836E-03   1.163836E-03   1.163836E-03   1.163836E-03   1.163836E-03   1.163836E-03   1.163836E-03   1.163836E-03   1.163836E-03   1.163836E-03   1.163836E-03   1.163836E-03   1.163836E-03   1.163836E-03   1.163836E-03   1.163836E-03   1.163836E-03   1.163836E-03   1.163836E-03   1.163836E-03   1.163836E-03   1.163836E-03   1.163836E-03   1.163836E-03   1.163836E-03   1.163836E-03   1.163836E-03   1.163836E-03   1.163836E-03   1.163836E-03   1.163836E-03   1.163836E-03   1.163836E-03   1.163836E-03   1.163836E-03   1.163836E-03   1.163836E-03   1.163836E-03   1.163836E-03   1.163836E-03   1.163836E-03   1.163836E-03   1.163836E-03   1.163836E-03   1.163836E-03   1.163836E-03   1.163836E-03   1.163836E-03   1.163836E-03   1.163836E-03
   1.163836E-03   1.163836E-03   1.163836E-03   1.047452E-05   1.047452E-05   1.047452E-05   1.047452E-05   1.047452E-05   1.047452E-05   1.047452E-05   1.047452E-05   1.047452E-05   1.047452E-05   1.047452E-05   1.047452E-05   1.047452E-05   1.047452E-05   1.047452E-05   1.047452E-05   1.163836E-03   1.163836E-03   1.163836E-03   1.163836E-03   1.163836E-03   1.163836E-03   1.163836E-03   1.163836E-03   1.163836E-03   1.163836E-03   1.163836E-03   1.163836E-03   1.163836E-03   1.163836E-03   1.163836E-03   1.163836E-03   1.163836E-03   1.163836E-03   1.163836E-03   1.163836E-03   1.163836E-03   1.163836E-03   1.163836E-03   1.163836E-03   1.163836E-03   1.163836E-03   1.163836E-03   1.163836E-03   1.163836E-03   1.163836E-03   1.163836E-03   1.163836E-03   1.163836E-03   1.163836E-03   1.163836E-03   1.163836E-03   1.163836E-03   1.163836E-03   1.163836E-03   1.163836E-03   1.163836E-03   1.163836E-03   1.163836E-03   1.163836E-03   1.163836E-03   1.163836E-03   1.163836E-03   1.163836E-03   1.163836E-03   1.163836E-03   1.163836E-03   1.163836E-03   1.163836E-03   1.163836E-03   1.163836E-03   1.163836E-03   1.163836E-03
   1.163836E-03   1.163836E-03   1.163836E-03   1.163836E-03   1.163836E-03   1.047452E-05   1.047452E-05   1.047452E-05   1.047452E-05   1.047452E-05   1.047452E-05   1.047452E-05   1.047452E-05   1.047452E-05   1.047452E-05   1.047452E-05   1.047452E-05   1.047452E-05   1.163836E-03   1.163836E-03   1.163836E-03   1.163836E-03   1.163836E-03   1.163836E-03   1.163836E-03   1.163836E-03   1.163836E-03   1.163836E-03   1.163836E-03   1.163836E-03   1.163836E-03   1.163836E-03   1.163836E-03   1.163836E-03   1.163836E-03   1.163836E-03   1.163836E-03   1.163836E-03   1.163836E-03   1.163836E-03   1.163836E-03   1.163836E-03   1.163836E-03   1.163836E-03   1.163836E-03   1.163836E-03   1.163836E-03   1.163836E-03   1.163836E-03   1.163836E-03   1.163836E-03   1.163836E-03   1.163836E-03   1.163836E-03   1.163836E-03   1.163836E-03   1.163836E-03   1.163836E-03   1.163836E-03   1.163836E-03   1.163836E-03   1.163836E-03   1.163836E-03   1.163836E-03   1.163836E-03   1.163836E-03   1.163836E-03   1.163836E-03   1.163836E-03   1.163836E-03   1.163836E-03   1.163836E-03   1.163836E-03   1.163836E-03   1.163836E-03   1.163836E-03
   1.163836E-03   1.163836E-03   1.163836E-03   1.163836E-03   1.163836E-03   1.163836E-03   1.047452E-05   1.047452E-05   1.047452E-05   1.047452E-05   1.047452E-05   1.047452E-05   1.047452E-05   1.047452E-05   1.047452E-05   1.047452E-05   1.047452E-05   1.047452E-05   1.047452E-05   1.163836E-03   1.163836E-03   1.163836E-03   1.163836E-03   1.163836E-03   1.163836E-03   1.163836E-03   1.163836E-03   1.163836E-03   1.163836E-03   1.163836E-03   1.163836E-03   1.163836E-03   1.163836E-03   1.163836E-03   1.163836E-03   1.163836E-03   1.163836E-03   1.163836E-03   1.163836E-03   1.163836E-03   1.163836E-03   1.163836E-03   1.163836E-03   1.163836E-03   1.163836E-03   1.163836E-03   1.163836E-03   1.163836E-03   1.163836E-03   1.163836E-03   1.163836E-03   1.163836E-03   1.163836E-03   1.163836E-03   1.163836E-03   1.163836E-03   1.163836E-03   1.163836E-03   1.163836E-03   1.163836E-03   1.163836E-03   1.163836E-03   1.163836E-03   1.163836E-03   1.163836E-03   1.163836E-03   1.163836E-03   1.163836E-03   1.163836E-03   1.163836E-03   1.163836E-03   1.163836E-03   1.163836E-03   1.163836E-03   1.163836E-03   1.163836E-03
   1.163836E-03   1.163836E-03   1.163836E-03   1.163836E-03   1.163836E-03   1.163836E-03   1.047452E-05   1.047452E-05   1.047452E-05   1.047452E-05   1.047452E-05   1.047452E-05   1.047452E-05   1.047452E-05   1.047452E-05   1.047452E-05   1.047452E-05   1.047452E-05   1.047452E-05   1.047452E-05   1.163836E-03   1.163836E-03   1.163836E-03   1.163836E-03   1.163836E-03   1.163836E-03   1.163836E-03   1.163836E-03   1.163836E-03   1.163836E-03   1.163836E-03   1.163836E-03   1.163836E-03   1.163836E-03   1.163836E-03   1.163836E-03   1.163836E-03   1.163836E-03   1.163836E-03   1.163836E-03   1.163836E-03   1.163836E-03   1.163836E-03   1.163836E-03   1.163836E-03   1.163836E-03   1.163836E-03   1.163836E-03   1.163836E-03   1.163836E-03   1.163836E-03   1.163836E-03   1.163836E-03   1.163836E-03   1.163836E-03   1.163836E-03   1.163836E-03   1.163836E-03   1.163836E-03   1.163836E-03   1.163836E-03   1.163836E-03   1.163836E-03   1.163836E-03   1.163836E-03   1.163836E-03   1.163836E-03   1.163836E-03   1.163836E-03   1.163836E-03   1.163836E-03   1.163836E-03   1.163836E-03   1.163836E-03   1.163836E-03   1.163836E-03
   1.163836E-03   1.163836E-03   1.163836E-03   1.163836E-03   1.163836E-03   1.163836E-03   1.047452E-05   1.047452E-05   1.047452E-05   1.047452E-05   1.047452E-05   1.047452E-05   1.047452E-05   1.047452E-05   1.047452E-05   1.047452E-05   1.047452E-05   1.047452E-05   1.047452E-05   1.163836E-03   1.163836E-03   1.163836E-03   1.163836E-03   1.163836E-03   1.163836E-03   1.163836E-03   1.163836E-03   1.163836E-03   1.163836E-03   1.163836E-03   1.163836E-03   1.163836E-03   1.163836E-03   1.163836E-03   1.163836E-03   1.163836E-03   1.163836E-03   1.163836E-03   1.163836E-03   1.163836E-03   1.163836E-03   1.163836E-03   1.163836E-03   1.163836E-03   1.163836E-03   1.163836E-03   1.163836E-03   1.163836E-03   1.163836E-03   1.163836E-03   1.163836E-03   1.163836E-03   1.163836E-03   1.163836E-03   1.163836E-03   1.163836E-03   1.163836E-03   1.163836E-03   1.163836E-03   1.163836E-03   1.163836E-03   1.163836E-03   1.163836E-03   1.163836E-03   1.163836E-03   1.163836E-03   1.163836E-03   1.163836E-03   1.163836E-03   1.163836E-03   1.163836E-03   1.163836E-03   1.163836E-03   1.163836E-03   1.163836E-03   1.163836E-03
   1.163836E-03   1.163836E-03   1.163836E-03   1.163836E-03   1.163836E-03   1.047452E-05   1.047452E-05   1.047452E-05   1.047452E-05   1.047452E-05   1.047452E-05   1.047452E-05   1.047452E-05   1.047452E-05   1.047452E-05   1.047452E-05   1.047452E-05   1.047452E-05   1.047452E-05   1.047452E-05   1.163836E-03   1.163836E-03   1.163836E-03   1.163836E-03   1.163836E-03   1.163836E-03   1.163836E-03   1.163836E-03   1.163836E-03   1.163836E-03   1.163836E-03   1.163836E-03   1.163836E-03   1.163836E-03   1.163836E-03   1.163836E-03   1.163836E-03   1.163836E-03   1.163836E-03   1.163836E-03   1.163836E-03   1.163836E-03   1.163836E-03   1.163836E-03   1.163836E-03   1.163836E-03   1.163836E-03   1.163836E-03   1.163836E-03   1.163836E-03   1.163836E-03   1.163836E-03   1.163836E-03   1.163836E-03   1.163836E-03   1.163836E-03   1.163836E-03   1.163836E-03   1.163836E-03   1.163836E-03   1.163836E-03   1.163836E-03   1.163836E-03   1.163836E-03   1.163836E-03   1.163836E-03   1.163836E-03   1.163836E-03   1.163836E-03   1.163836E-03   1.163836E-03   1.163836E-03   1.163836E-03   1.163836E-03   1.163836E-03   1.163836E-03
   1.163836E-03   1.163836E-03   1.163836E-03   1.163836E-03   1.163836E-03   1.163836E-03   1.047452E-05   1.047452E-05   1.047452E-05   1.047452E-05   1.047452E-05   1.047452E-05   1.047452E-05   1.047452E-05   1.047452E-05   1.047452E-05   1.047452E-05   1.047452E-05   1.047452E-05   1.047452E-05   1.047452E-05   1.163836E-03   1.163836E-03   1.163836E-03   1.163836E-03   1.163836E-03   1.163836E-03   1.163836E-03   1.163836E-03   1.163836E-03   1.163836E-03   1.163836E-03   1.163836E-03   1.163836E-03   1.163836E-03   1.163836E-03   1.163836E-03   1.163836E-03   1.163836E-03   1.163836E-03   1.163836E-03   1.163836E-03   1.163836E-03   1.163836E-03   1.163836E-03   1.163836E-03   1.163836E-03   1.163836E-03   1.163836E-03   1.163836E-03   1.163836E-03   1.163836E-03   1.163836E-03   1.163836E-03   1.163836E-03   1.163836E-03   1.163836E-03   1.163836E-03   1.163836E-03   1.163836E-03   1.163836E-03   1.163836E-03   1.163836E-03   1.163836E-03   1.163836E-03   1.163836E-03   1.163836E-03   1.163836E-03   1.163836E-03   1.163836E-03   1.163836E-03   1.163836E-03   1.163836E-03   1.163836E-03   1.163836E-03   1.163836E-03
   1.163836E-03   1.163836E-03   1.163836E-03   1.163836E-03   1.163836E-03   1.163836E-03   1.047452E-05   1.047452E-05   1.047452E-05   1.047452E-05   1.047452E-05   1.047452E-05   1.047452E-05   1.047452E-05   1.047452E-05   1.047452E-05   1.047452E-05   1.047452E-05   1.047452E-05   1.047452E-05   1.047452E-05   1.047452E-05   1.163836E-03   1.163836E-03   1.163836E-03   1.163836E-03   1.163836E-03   1.163836E-03   1.163836E-03   1.163836E-03   1.163836E-03   1.163836E-03   1.163836E-03   1.163836E-03   1.163836E-03   1.163836E-03   1.163836E-03   1.163836E-03   1.163836E-03   1.163836E-03   1.163836E-03   1.163836E-03   1.163836E-03   1.163836E-03   1.163836E-03   1.163836E-03   1.163836E-03   1.163836E-03   1.163836E-03   1.163836E-03   1.163836E-03   1.163836E-03   1.163836E-03   1.163836E-03   1.163836E-03   1.163836E-03   1.163836E-03   1.163836E-03   1.163836E-03   1.163836E-03   1.163836E-03   1.163836E-03   1.163836E-03   1.163836E-03   1.163836E-03   1.163836E-03   1.163836E-03   1.163836E-03   1.163836E-03   1.163836E-03   1.163836E-03   1.163836E-03   1.163836E-03   1.163836E-03   1.163836E-03   1.163836E-03
   1.163836E-03   1.163836E-03   1.163836E-03   1.163836E-03   1.163836E-03   1.047452E-05   1.047452E-05   1.047452E-05   1.047452E-05   1.047452E-05   1.047452E-05   1.047452E-05   1.047452E-05   1.047452E-05   1.047452E-05   1.047452E-05   1.047452E-05   1.047452E-05   1.047452E-05   1.047452E-05   1.047452E-05   1.047452E-05   1.047452E-05   1.047452E-05   1.163836E-03   1.163836E-03   1.163836E-03   1.163836E-03   1.163836E-03   1.163836E-03   1.163836E-03   1.163836E-03   1.163836E-03   1.163836E-03   1.163836E-03   1.163836E-03   1.163836E-03   1.163836E-03   1.163836E-03   1.163836E-03   1.163836E-03   1.163836E-03   1.163836E-03   1.163836E-03   1.163836E-03   1.163836E-03   1.163836E-03   1.163836E-03   1.163836E-03   1.163836E-03   1.163836E-03   1.163836E-03   1.163836E-03   1.163836E-03   1.163836E-03   1.163836E-03   1.163836E-03   1.163836E-03   1.163836E-03   1.163836E-03   1.163836E-03   1.163836E-03   1.163836E-03   1.163836E-03   1.163836E-03   1.163836E-03   1.163836E-03   1.163836E-03   1.163836E-03   1.163836E-03   1.163836E-03   1.163836E-03   1.163836E-03   1.163836E-03   1.163836E-03   1.163836E-03
   1.163836E-03   1.163836E-03   1.163836E-03   1.163836E-03   1.163836E-03   1.047452E-05   1.047452E-05   1.047452E-05   1.047452E-05   1.047452E-05   1.047452E-05   1.047452E-05   1.047452E-05   1.047452E-05   1.047452E-05   1.047452E-05   1.047452E-05   1.047452E-05   1.047452E-05   1.047452E-05   1.047452E-05   1.047452E-05   1.047452E-05   1.047452E-05   1.047452E-05   1.163836E-03   1.163836E-03   1.163836E-03   1.163836E-03   1.163836E-03   1.163836E-03   1.163836E-03   1.163836E-03   1.163836E-03   1.163836E-03   1.163836E-03   1.163836E-03   1.163836E-03   1.163836E-03   1.163836E-03   1.163836E-03   1.163836E-03   1.163836E-03   1.163836E-03   1.163836E-03   1.163836E-03   1.163836E-03   1.163836E-03   1.163836E-03   1.163836E-03   1.163836E-03   1.163836E-03   1.163836E-03   1.163836E-03   1.163836E-03   1.163836E-03   1.163836E-03   1.163836E-03   1.163836E-03   1.163836E-03   1.163836E-03   1.163836E-03   1.163836E-03   1.163836E-03   1.163836E-03   1.163836E-03   1.163836E-03   1.163836E-03   1.163836E-03   1.163836E-03   1.163836E-03   1.163836E-03   1.163836E-03   1.163836E-03   1.163836E-03   1.163836E-03
   1.163836E-03   1.163836E-03   1.163836E-03   1.163836E-03   1.047452E-05   1.047452E-05   1.047452E-05   1.047452E-05   1.047452E-05   1.047452E-05   1.047452E-05   1.047452E-05   1.047452E-05   1.047452E-05   1.047452E-05   1.047452E-05   1.047452E-05   1.047452E-05   1.047452E-05   1.047452E-05   1.047452E-05   1.047452E-05   1.047452E-05   1.047452E-05   1.047452E-05   1.047452E-05   1.163836E-03   1.163836E-03   1.163836E-03   1.163836E-03   1.163836E-03   1.163836E-03   1.163836E-03   1.163836E-03   1.163836E-03   1.163836E-03   1.163836E-03   1.163836E-03   1.163836E-03   1.163836E-03   1.163836E-03   1.163836E-03   1.163836E-03   1.163836E-03   1.163836E-03   1.163836E-03   1.163836E-03   1.163836E-03   1.163836E-03   1.163836E-03   1.163836E-03   1.163836E-03   1.163836E-03   1.163836E-03   1.163836E-03   1.163836E-03   1.163836E-03   1.163836E-03   1.163836E-03   1.163836E-03   1.163836E-03   1.163836E-03   1.163836E-03   1.163836E-03   1.163836E-03   1.163836E-03   1.163836E-03   1.163836E-03   1.163836E-03   1.163836E-03   1.163836E-03   1.163836E-03   1.163836E-03   1.163836E-03   1.163836E-03   1.163836E-03
   1.163836E-03   1.163836E-03   1.163836E-03   1.047452E-05   1.047452E-05   1.047452E-05   1.047452E-05   1.047452E-05   1.047452E-05   1.047452E-05   1.047452E-05   1.047452E-05   1.047452E-05   1.047452E-05   1.047452E-05   1.047452E-05   1.047452E-05   1.047452E-05   1.047452E-05   1.047452E-05   1.047452E-05   1.047452E-05   1.047452E-05   1.047452E-05   1.047452E-05   1.047452E-05   1.047452E-05   1.163836E-03   1.047452E-05   1.163836E-03   1.163836E-03   1.163836E-03   1.163836E-03   1.163836E-03   1.163836E-03   1.163836E-03   1.163836E-03   1.163836E-03   1.163836E-03   1.163836E-03   1.163836E-03   1.163836E-03   1.163836E-03   1.163836E-03   1.163836E-03   1.163836E-03   1.163836E-03   1.163836E-03   1.163836E-03   1.163836E-03   1.163836E-03   1.163836E-03   1.163836E-03   1.163836E-03   1.163836E-03   1.163836E-03   1.163836E-03   1.163836E-03   1.163836E-03   1.163836E-03   1.163836E-03   1.163836E-03   1.163836E-03   1.163836E-03   1.163836E-03   1.163836E-03   1.163836E-03   1.163836E-03   1.163836E-03   1.163836E-03   1.163836E-03   1.163836E-03   1.163836E-03   1.163836E-03   1.163836E-03   1.163836E-03
   1.163836E-03   1.163836E-03   1.047452E-05   1.047452E-05   1.047452E-05   1.047452E-05   1.047452E-05   1.047452E-05   1.047452E-05   1.047452E-05   1.047452E-05   1.047452E-05   1.047452E-05   1.047452E-05   1.047452E-05   1.047452E-05   1.047452E-05   1.047452E-05   1.047452E-05   1.047452E-05   1.047452E-05   1.047452E-05   1.047452E-05   1.047452E-05   1.047452E-05   1.047452E-05   1.047452E-05   1.047452E-05   1.047452E-05   1.163836E-03   1.163836E-03   1.163836E-03   1.163836E-03   1.163836E-03   1.163836E-03   1.163836E-03   1.163836E-03   1.163836E-03   1.163836E-03   1.163836E-03   1.163836E-03   1.163836E-03   1.163836E-03   1.163836E-03   1.163836E-03   1.163836E-03   1.163836E-03   1.163836E-03   1.163836E-03   1.163836E-03   1.163836E-03   1.163836E-03   1.163836E-03   1.163836E-03   1.163836E-03   1.163836E-03   1.163836E-03   1.163836E-03   1.163836E-03   1.163836E-03   1.163836E-03   1.163836E-03   1.163836E-03   1.163836E-03   1.163836E-03   1.163836E-03   1.163836E-03   1.163836E-03   1.163836E-03   1.163836E-03   1.163836E-03   1.163836E-03   1.163836E-03   1.163836E-03   1.163836E-03   1.163836E-03
   1.163836E-03   1.163836E-03   1.047452E-05   1.047452E-05   1.047452E-05   1.047452E-05   1.047452E-05   1.047452E-05   1.047452E-05   1.047452E-05   1.047452E-05   1.047452E-05   1.047452E-05   1.047452E-05   1.047452E-05   1.047452E-05   1.047452E-05   1.047452E-05   1.047452E-05   1.047452E-05   1.047452E-05   1.047452E-05   1.047452E-05   1.047452E-05   1.047452E-05   1.047452E-05   1.047452E-05   1.047452E-05   1.047452E-05   1.163836E-03   1.163836E-03   1.163836E-03   1.163836E-03   1.163836E-03   1.163836E-03   1.163836E-03   1.163836E-03   1.163836E-03   1.163836E-03   1.163836E-03   1.163836E-03   1.163836E-03   1.163836E-03   1.163836E-03   1.163836E-03   1.163836E-03   1.163836E-03   1.163836E-03   1.163836E-03   1.163836E-03   1.163836E-03   1.163836E-03   1.163836E-03   1.163836E-03   1.163836E-03   1.163836E-03   1.163836E-03   1.163836E-03   1.163836E-03   1.163836E-03   1.163836E-03   1.163836E-03   1.163836E-03   1.163836E-03   1.163836E-03   1.163836E-03   1.163836E-03   1.163836E-03   1.163836E-03   1.163836E-03   1.163836E-03   1.163836E-03   1.163836E-03   1.163836E-03   1.163836E-03   1.163836E-03