# RCH package for  MODFLOW-NWT, generated by Flopy.
         3        53
         1        -1 # Stress period 1
INTERNAL               1  (16E15.6) -1 #rech_1                        
   2.097114E-09   1.154628E-10   2.084599E-10   8.499680E-09   1.291200E-08   1.749188E-08   2.261113E-08   2.814368E-08   3.747264E-08   6.482738E-08   6.597364E-08   3.943012E-08   5.075485E-09   0.000000E+00   0.000000E+00   6.353549E-08
   1.450862E-09   7.912174E-11   1.488287E-10   8.499680E-09   1.291200E-08   1.749188E-08   2.261113E-08   2.566075E-08   3.672271E-08   7.643294E-08   9.853026E-08   1.066704E-07   1.009574E-07   1.072986E-07   1.422110E-07   2.250512E-07
   1.057269E-09   5.611960E-11   1.030944E-10   1.841613E-10   9.687818E-09   1.384062E-08   1.898285E-08   2.566075E-08   3.672271E-08   7.643294E-08   9.853026E-08   1.066704E-07   1.416509E-07   1.679631E-07   2.227607E-07   2.967666E-07
   8.636961E-10   4.190689E-11   7.133681E-11   1.274151E-10   7.047738E-09   1.041941E-08   1.486646E-08   2.175397E-08   3.092891E-08   4.595421E-08   9.176750E-08   1.207869E-07   1.416509E-07   1.679631E-07   2.227607E-07   2.967666E-07
   7.815155E-10   3.506494E-11   5.458635E-11   9.221854E-11   1.511183E-10   2.276695E-10   1.113340E-08   1.697492E-08   2.520225E-08   3.719537E-08   7.568000E-08   1.022449E-07   1.254782E-07   1.538782E-07   2.037714E-07   2.559778E-07
   1.520257E-11   3.123004E-11   4.592781E-11   7.114276E-11   1.122973E-10   1.694183E-10   8.174345E-09   1.206158E-08   1.750104E-08   2.503694E-08   5.273474E-08   7.070673E-08   9.754994E-08   1.226809E-07   1.618728E-07   2.074186E-07
   1.402419E-11   2.880765E-11   4.160274E-11   6.103218E-11   9.086724E-11   1.332196E-10   1.928654E-10   2.717724E-10   1.236883E-08   1.696717E-08   3.233315E-08   4.512233E-08   6.302606E-08   8.563280E-08   1.149177E-07   1.573849E-07
   1.262245E-11   2.747551E-11   3.953984E-11   5.696811E-11   8.149761E-11   1.173570E-10   1.633280E-10   2.165341E-10   2.806433E-10   3.588581E-10   1.957463E-08   2.563073E-08   3.524179E-08   5.197005E-08   7.897179E-08   1.134808E-07
   4.119233E-10   1.874330E-11   3.929736E-11   5.697717E-11   8.138612E-11   1.141264E-10   1.515776E-10   1.908816E-10   2.358820E-10   2.801692E-10   3.350627E-10   1.583380E-08   2.137791E-08   3.356006E-08   5.687115E-08   8.746115E-08
   4.243899E-10   1.890392E-11   4.158843E-11   6.019535E-11   8.559372E-11   1.184521E-10   1.550454E-10   1.930094E-10   2.284559E-10   2.629874E-10   3.001096E-10   4.401031E-10   6.000869E-10   2.898030E-08   4.725288E-08   7.120216E-08
   4.243899E-10   1.890392E-11   4.584447E-11   6.609565E-11   9.404330E-11   1.292772E-10   1.661745E-10   2.053721E-10   2.470370E-10   2.841015E-10   3.321010E-10   5.095959E-10   6.751674E-10   3.149545E-08   4.727845E-08   6.951986E-08
   4.746923E-10   2.107211E-11   4.584447E-11   6.609565E-11   9.404330E-11   1.292772E-10   1.661745E-10   2.292892E-10   2.757100E-10   3.297041E-10   3.939986E-10   6.238356E-10   8.409648E-10   3.873957E-08   5.564361E-08   7.660337E-08
   5.842655E-10   8.130985E-10   3.474211E-11   7.410787E-11   1.047942E-10   1.434885E-10   1.839064E-10   2.292892E-10   2.757100E-10   3.297041E-10   3.939986E-10   5.947102E-10   1.036986E-09   4.755476E-08   6.450765E-08   8.573282E-08
   7.511619E-10   1.013467E-09   4.276547E-11   9.153372E-11   1.267302E-10   1.650923E-10   2.121074E-10   2.653213E-10   3.189561E-10   3.842621E-10   4.680847E-10   5.947102E-10   1.036986E-09   4.755476E-08   6.450765E-08   8.573282E-08
   1.031778E-09   1.345055E-09   5.567535E-11   1.130642E-10   1.566906E-10   2.117441E-10   2.597153E-10   3.156815E-10   3.751086E-10   4.498635E-10   5.586027E-10   7.218597E-10   1.265335E-09   1.688489E-09   7.442851E-08   9.706937E-08
   1.518671E-09   1.946259E-09   7.828606E-11   1.092701E-10   2.099583E-10   2.851967E-10   3.544388E-10   4.091601E-10   4.663173E-10   5.317252E-10   6.640261E-10   8.297207E-10   1.485860E-09   1.972939E-09   8.609953E-08   1.081956E-07
   2.342857E-09   2.961857E-09   3.975996E-09   1.642099E-10   3.037700E-10   3.982098E-10   5.017949E-10   5.814529E-10   6.348674E-10   6.578719E-10   8.048668E-10   9.918910E-10   1.695005E-09   2.238782E-09   2.911292E-09   1.223769E-07
   3.661816E-09   4.531520E-09   5.739700E-09   2.290360E-10   3.944858E-10   5.321468E-10   6.936695E-10   8.141638E-10   8.900941E-10   8.737072E-10   1.003195E-09   1.222508E-09   1.476778E-09   2.497203E-09   3.241333E-09   1.351535E-07
   5.394880E-09   6.573242E-09   2.372451E-10   2.900590E-10   4.808821E-10   6.568655E-10   9.265257E-10   1.160559E-09   1.260198E-09   1.227448E-09   1.270287E-09   1.440840E-09   1.802958E-09   2.753087E-09   3.393855E-09   1.372463E-07
   7.254852E-09   8.874995E-09   2.983191E-10   3.476256E-10   4.347530E-10   7.561043E-10   1.076512E-09   1.384735E-09   1.711267E-09   1.726364E-09   1.644150E-09   1.757302E-09   2.140019E-09   0.000000E+00   2.937867E-09   1.094556E-07
   7.254852E-09   8.874995E-09   3.587828E-10   3.856062E-10   4.235164E-10   6.741315E-10   9.646843E-10   0.000000E+00   2.114878E-09   2.655285E-09   2.646836E-09   2.372388E-09   2.158315E-09   2.436536E-09   4.733421E-08   3.000757E-08
   9.247792E-09   3.377807E-10   3.587828E-10   3.856062E-10   4.235164E-10   6.741315E-10   9.646843E-10   1.124552E-09   2.188572E-09   3.260133E-09   3.390253E-09   2.666311E-09   1.728112E-09   4.087726E-10   0.000000E+00   0.000000E+00
   1.131525E-08   4.024389E-10   4.201556E-10   4.036800E-10   3.525761E-10   3.037089E-10   4.531689E-10   0.000000E+00   2.188572E-09   3.260133E-09   3.390253E-09   9.581187E-10   0.000000E+00   0.000000E+00   0.000000E+00   0.000000E+00
   1.379625E-08   4.639401E-10   4.797227E-10   0.000000E+00   2.330522E-10   1.942766E-11   0.000000E+00   3.181197E-10   1.126256E-09   2.087270E-09   1.884725E-09   3.193729E-08   0.000000E+00   0.000000E+00   0.000000E+00   0.000000E+00
   1.560496E-08   5.299871E-10   5.054842E-10   3.657324E-10   8.651421E-11   0.000000E+00   0.000000E+00   0.000000E+00   0.000000E+00   0.000000E+00   0.000000E+00   0.000000E+00   0.000000E+00   0.000000E+00   0.000000E+00   0.000000E+00
   1.712115E-08   1.961842E-08   5.350736E-10   1.135633E-08   0.000000E+00   0.000000E+00   0.000000E+00   0.000000E+00   0.000000E+00   0.000000E+00   0.000000E+00   0.000000E+00   0.000000E+00   0.000000E+00   0.000000E+00   0.000000E+00
   1.976795E-08   2.194709E-08   6.477886E-10   1.367402E-08   0.000000E+00   0.000000E+00   0.000000E+00   0.000000E+00   0.000000E+00   0.000000E+00   0.000000E+00   0.000000E+00   0.000000E+00   0.000000E+00   0.000000E+00   0.000000E+00
   2.238726E-08   2.602805E-08   3.046567E-08   2.195938E-08   1.066656E-08   0.000000E+00   0.000000E+00   0.000000E+00   0.000000E+00   0.000000E+00   0.000000E+00   0.000000E+00   0.000000E+00   0.000000E+00   0.000000E+00   0.000000E+00
