# Well file for MODFLOW, generated by Flopy.
       105        53
       105         0 # stress period 0
         4        72        29  -0.0000000E+00
         3        72        29  -0.0000000E+00
         4        99        29  -0.0000000E+00
         3        99        29  -0.0000000E+00
         6       100        30  -0.0000000E+00
         3       101        30  -0.0000000E+00
         4       101        31  -0.0000000E+00
         1       105        31  -0.0000000E+00
         4        52        32  -0.0000000E+00
         6        90        34  -0.0000000E+00
         3        52        35  -0.0000000E+00
         5        87        35  -0.0000000E+00
         4        88        36  -0.0000000E+00
         4        89        37  -0.0000000E+00
         6        93        37  -0.0000000E+00
         4        53        38  -0.0000000E+00
         4        59        38  -0.0000000E+00
         4        81        38  -0.0000000E+00
         4        44        39  -0.0000000E+00
         4        52        39  -0.0000000E+00
         4        56        39  -0.0000000E+00
         4        57        39  -0.0000000E+00
         4        68        39  -0.0000000E+00
         4        82        39  -0.0000000E+00
         6        55        40  -0.0000000E+00
         6        58        40  -0.0000000E+00
         4        62        40  -0.0000000E+00
         4        68        40  -0.0000000E+00
         3        74        40  -0.0000000E+00
         3        74        40  -0.0000000E+00
         4        76        40  -0.0000000E+00
         6        59        41  -0.0000000E+00
         6        59        41  -0.0000000E+00
         6        65        41  -0.0000000E+00
         6        65        41  -0.0000000E+00
         4        66        41  -0.0000000E+00
         6        69        41  -0.0000000E+00
         4        70        41  -0.0000000E+00
         6        71        41  -0.0000000E+00
         3        72        41  -0.0000000E+00
         4        75        41  -0.0000000E+00
         4        52        42  -0.0000000E+00
         6        58        42  -0.0000000E+00
         4        64        42  -0.0000000E+00
         6        65        42  -0.0000000E+00
         4        66        42  -0.0000000E+00
         6        69        42  -0.0000000E+00
         6        69        42  -0.0000000E+00
         4        70        42  -0.0000000E+00
         7        72        42  -0.0000000E+00
         4        72        42  -0.0000000E+00
         4        72        42  -0.0000000E+00
         4        46        43  -0.0000000E+00
         6        54        43  -0.0000000E+00
         6        57        43  -0.0000000E+00
         6        64        43  -0.0000000E+00
         4        64        43  -0.0000000E+00
         3        66        43  -0.0000000E+00
         3        68        43  -0.0000000E+00
         3        68        43  -0.0000000E+00
         3        69        43  -0.0000000E+00
         4        69        43  -0.0000000E+00
         4        47        44  -0.0000000E+00
         4        63        44  -0.0000000E+00
         4        64        44  -0.0000000E+00
         4        66        44  -0.0000000E+00
         6        66        44  -0.0000000E+00
         4        66        44  -0.0000000E+00
         4        66        44  -0.0000000E+00
         3        46        45  -0.0000000E+00
         4        51        45  -0.0000000E+00
         6        66        45  -0.0000000E+00
         4        50        47  -0.0000000E+00
         3        43        49  -0.0000000E+00
         4        52        52  -0.0000000E+00
         4        54        53  -0.0000000E+00
         6        57        53  -0.0000000E+00
         4        54        54  -0.0000000E+00
         5        39        20   0.0000000E+00
         4        39        20   0.0000000E+00
         2        39        20   0.0000000E+00
         2        97        23   0.0000000E+00
         6        25        25   0.0000000E+00
         4        25        25   0.0000000E+00
         2        25        25   0.0000000E+00
         2        25        25   0.0000000E+00
         4        49        32   0.0000000E+00
         6        99        33   0.0000000E+00
         4        99        33   0.0000000E+00
         6        85        38   0.0000000E+00
         1        85        38   0.0000000E+00
         6        56        41   0.0000000E+00
         4        56        48   0.0000000E+00
         4        50        49   0.0000000E+00
         2        50        49   0.0000000E+00
         6        55        57   0.0000000E+00
         1        55        57   0.0000000E+00
         3        81        59   0.0000000E+00
         7        85        62   0.0000000E+00
         3        66        66   0.0000000E+00
         1        66        66   0.0000000E+00
         3        80        66   0.0000000E+00
         1        80        66   0.0000000E+00
         7        74        69   0.0000000E+00
         1        74        69   0.0000000E+00
