# NWT for MODFLOW-NWT, generated by Flopy.
 1.000e-04 1.000e+01    100000 1.000e-07         2         0         0   COMPLEX
