# RIV for MODFLOW, generated by Flopy.
       206        53
       206         0 # stress period 0
         1       116        30   4.0620100E+05   1.6029350E+02   4.0620000E+05
         1       110        31   4.0620100E+05   3.2400766E+02   4.0620000E+05
         1       111        31   4.0620100E+05   2.1848067E+02   4.0620000E+05
         1       113        31   4.0620100E+05   2.6229495E+02   4.0620000E+05
         1       114        31   4.0620100E+05   5.1441260E+02   4.0620000E+05
         1       115        31   4.0620100E+05   5.7761566E+02   4.0620000E+05
         1       116        31   4.0620100E+05   7.8219415E+02   4.0620000E+05
         1       117        31   4.0620100E+05   1.0391394E+02   4.0620000E+05
         1       118        31   4.0620100E+05   1.5329440E+02   4.0620000E+05
         1       101        32   4.0620100E+05   6.7498956E+02   4.0620000E+05
         1       102        32   4.0620100E+05   2.5014429E+02   4.0620000E+05
         1       104        32   4.0620100E+05   1.5234837E+02   4.0620000E+05
         1       105        32   4.0620100E+05   5.9898633E+02   4.0620000E+05
         1       106        32   4.0620100E+05   6.0374829E+02   4.0620000E+05
         1       107        32   4.0620100E+05   5.7528748E+02   4.0620000E+05
         1       108        32   4.0620100E+05   5.7538501E+02   4.0620000E+05
         1       109        32   4.0620100E+05   5.5510321E+02   4.0620000E+05
         1       110        32   4.0620100E+05   2.2356543E+02   4.0620000E+05
         1       111        32   4.0620100E+05   3.8767593E+02   4.0620000E+05
         1       112        32   4.0620100E+05   5.6528821E+02   4.0620000E+05
         1       113        32   4.0620100E+05   4.8432159E+02   4.0620000E+05
         1       116        32   4.0620100E+05   1.0452751E+02   4.0620000E+05
         1       117        32   4.0620100E+05   4.7724695E+02   4.0620000E+05
         1       118        32   4.0620100E+05   6.2282233E+02   4.0620000E+05
         1       119        32   4.0620100E+05   1.4178404E+02   4.0620000E+05
         1        99        33   4.0620100E+05   9.7778557E+01   4.0620000E+05
         1       100        33   4.0620100E+05   6.9755499E+02   4.0620000E+05
         1       101        33   4.0620100E+05   1.4615607E+02   4.0620000E+05
         1       102        33   4.0620100E+05   3.1428735E+02   4.0620000E+05
         1       103        33   4.0620100E+05   5.2738110E+02   4.0620000E+05
         1       104        33   4.0620100E+05   6.7199384E+02   4.0620000E+05
         1       119        33   4.0620100E+05   5.0219693E+02   4.0620000E+05
         1       120        33   4.0620100E+05   5.4615552E+02   4.0620000E+05
         1       121        33   4.0620100E+05   7.3059808E+02   4.0620000E+05
         1        97        34   4.0620100E+05   1.5884941E+02   4.0620000E+05
         1        98        34   4.0620100E+05   5.3900189E+02   4.0620000E+05
         1        99        34   4.0620100E+05   6.0589447E+02   4.0620000E+05
         1        95        35   4.0620100E+05   1.4791437E+02   4.0620000E+05
         1        96        35   4.0620150E+05   6.4937537E+02   4.0620050E+05
         1        97        35   4.0620203E+05   6.0484778E+02   4.0620103E+05
         1        95        36   4.0620212E+05   7.0233405E+02   4.0620112E+05
         1        96        36   4.0620225E+05   1.1847525E+02   4.0620125E+05
         1        89        37   4.0620284E+05   2.1386873E+02   4.0620184E+05
         1        90        37   4.0620288E+05   2.4438637E+02   4.0620188E+05
         1        92        37   4.0620359E+05   4.1569119E+02   4.0620259E+05
         1        93        37   4.0620369E+05   3.2667020E+02   4.0620269E+05
         1        94        37   4.0620394E+05   8.6456885E+02   4.0620294E+05
         1        95        37   4.0620419E+05   4.8271187E+01   4.0620319E+05
         1        89        38   4.0620453E+05   5.5639844E+02   4.0620353E+05
         1        90        38   4.0620500E+05   4.5722955E+02   4.0620400E+05
         1        91        38   4.0620547E+05   5.7673254E+02   4.0620447E+05
         1        92        38   4.0620569E+05   5.4170911E+02   4.0620469E+05
         1        93        38   4.0620606E+05   3.0254834E+02   4.0620506E+05
         1        94        38   4.0620625E+05   8.8024765E+01   4.0620525E+05
         1        82        39   4.0620669E+05   7.3271713E+01   4.0620569E+05
         1        83        39   4.0620744E+05   3.4491635E+02   4.0620644E+05
         1        84        39   4.0620750E+05   2.3873372E+02   4.0620650E+05
         1        85        39   4.0620806E+05   3.3592056E+02   4.0620706E+05
         1        86        39   4.0620822E+05   5.1785004E+02   4.0620722E+05
         1        88        39   4.0620881E+05   6.7096295E+02   4.0620781E+05
         1        89        39   4.0620925E+05   8.7517682E+02   4.0620825E+05
         1        80        40   4.0620978E+05   1.5141083E+02   4.0620878E+05
         1        81        40   4.0621000E+05   7.3337531E+02   4.0620900E+05
         1        82        40   4.0621028E+05   8.8867389E+02   4.0620928E+05
         1        83        40   4.0621081E+05   8.0694678E+02   4.0620981E+05
         1        84        40   4.0621094E+05   5.9564392E+02   4.0620994E+05
         1        85        40   4.0621116E+05   6.3011096E+02   4.0621016E+05
         1        86        40   4.0621162E+05   6.3164130E+02   4.0621062E+05
         1        87        40   4.0621194E+05   7.1523169E+02   4.0621094E+05
         1        88        40   4.0621259E+05   1.9113145E+02   4.0621159E+05
         1        89        40   4.0621266E+05   1.0339962E+02   4.0621166E+05
         1        80        41   4.0621341E+05   5.2246259E+02   4.0621241E+05
         1        81        41   4.0621356E+05   1.9924457E+02   4.0621256E+05
         1        82        41   4.0621416E+05   2.0210341E+02   4.0621316E+05
         1        85        41   4.0621434E+05   1.6382753E+02   4.0621334E+05
         1        86        41   4.0621447E+05   2.7842215E+02   4.0621347E+05
         1        80        42   4.0621491E+05   6.9126086E+02   4.0621391E+05
         1        79        43   4.0621547E+05   6.0791907E+02   4.0621447E+05
         1        80        43   4.0621591E+05   5.3648560E+02   4.0621491E+05
         1        73        44   4.0621641E+05   6.3700763E+02   4.0621541E+05
         1        74        44   4.0621653E+05   4.3235095E+02   4.0621553E+05
         1        75        44   4.0621716E+05   7.2802795E+02   4.0621616E+05
         1        76        44   4.0621744E+05   7.8683826E+02   4.0621644E+05
         1        77        44   4.0621775E+05   3.7738245E+02   4.0621675E+05
         1        78        44   4.0621800E+05   7.7387329E+02   4.0621700E+05
         1        79        44   4.0621672E+05   1.2328635E+02   4.0621572E+05
         1        72        45   4.0621647E+05   6.4265790E+02   4.0621547E+05
         1        73        45   4.0621528E+05   3.3156499E-01   4.0621428E+05
         1        74        45   4.0621459E+05   6.1651697E+02   4.0621359E+05
         1        76        45   4.0621359E+05   1.6150620E+02   4.0621259E+05
         1        77        45   4.0621256E+05   3.0421564E+02   4.0621156E+05
         1        78        45   4.0621256E+05   3.2486438E+02   4.0621156E+05
         1        61        46   4.0621150E+05   5.9156122E+02   4.0621050E+05
         1        62        46   4.0621019E+05   7.9865894E+02   4.0620919E+05
         1        63        46   4.0620984E+05   3.9476508E+02   4.0620884E+05
         1        72        46   4.0620866E+05   8.1968524E+02   4.0620766E+05
         1        57        47   4.0620756E+05   2.3012346E+02   4.0620656E+05
         1        58        47   4.0620719E+05   6.8934076E+02   4.0620619E+05
         1        59        47   4.0620656E+05   8.3806665E+02   4.0620556E+05
         1        60        47   4.0620603E+05   5.8412134E+02   4.0620503E+05
         1        61        47   4.0620509E+05   8.1997247E+02   4.0620409E+05
         1        63        47   4.0620406E+05   5.3232568E+02   4.0620306E+05
         1        64        47   4.0620322E+05   6.9048535E+02   4.0620222E+05
         1        65        47   4.0620294E+05   5.7157233E+02   4.0620194E+05
         1        66        47   4.0620200E+05   5.2111694E+02   4.0620100E+05
         1        67        47   4.0620412E+05   6.3131354E+02   4.0620312E+05
         1        68        47   4.0620538E+05   5.7722821E+02   4.0620438E+05
         1        69        47   4.0620700E+05   3.7020508E+02   4.0620600E+05
         1        70        47   4.0620950E+05   6.8465460E+02   4.0620850E+05
         1        71        47   4.0621131E+05   7.3374628E+02   4.0621031E+05
         1        72        47   4.0621388E+05   1.9643399E+02   4.0621288E+05
         1        57        48   4.0621569E+05   8.6644385E+02   4.0621469E+05
         1        66        48   4.0621828E+05   1.8435619E+02   4.0621728E+05
         1        69        48   4.0622041E+05   3.3740689E+02   4.0621941E+05
         1        70        48   4.0622112E+05   2.3498950E+02   4.0622012E+05
         1        41        49   4.0622531E+05   2.5031525E+02   4.0622431E+05
         1        43        49   4.0622784E+05   1.0315063E+02   4.0622684E+05
         1        56        49   4.0622888E+05   8.1676184E+02   4.0622788E+05
         1        57        49   4.0623109E+05   4.8591577E+02   4.0623009E+05
         1        40        50   4.0623216E+05   4.8024756E+02   4.0623116E+05
         1        41        50   4.0623459E+05   8.7969922E+02   4.0623359E+05
         1        42        50   4.0623481E+05   8.0105835E+02   4.0623381E+05
         1        43        50   4.0623816E+05   1.1368711E+03   4.0623716E+05
         1        44        50   4.0624131E+05   5.0306921E+02   4.0624031E+05
         1        46        50   4.0624375E+05   3.4022955E+02   4.0624275E+05
         1        47        50   4.0624419E+05   8.7286414E+02   4.0624319E+05
         1        48        50   4.0624656E+05   2.6077631E+02   4.0624556E+05
         1        53        50   4.0624981E+05   7.0870949E+01   4.0624881E+05
         1        54        50   4.0625062E+05   3.4454431E+02   4.0624962E+05
         1        55        50   4.0625266E+05   7.1771063E+02   4.0625166E+05
         1        56        50   4.0625538E+05   3.2951089E+02   4.0625438E+05
         1        43        51   4.0625644E+05   7.2790321E+01   4.0625544E+05
         1        44        51   4.0625872E+05   7.1498926E+02   4.0625772E+05
         1        45        51   4.0626091E+05   7.0992126E+02   4.0625991E+05
         1        46        51   4.0626247E+05   7.3610297E+02   4.0626147E+05
         1        48        51   4.0626469E+05   6.6080084E+02   4.0626369E+05
         1        49        51   4.0626500E+05   1.0509204E+03   4.0626400E+05
         1        50        51   4.0626500E+05   7.5986914E+02   4.0626400E+05
         1        51        51   4.0626500E+05   7.8330725E+02   4.0626400E+05
         1        52        51   4.0626500E+05   1.0197832E+03   4.0626400E+05
         1        53        51   4.0626500E+05   1.0802728E+03   4.0626400E+05
         1        54        51   4.0626500E+05   7.8293042E+02   4.0626400E+05
         1        51        52   4.0626500E+05   1.4760135E+02   4.0626400E+05
         1         2        12   8.0514069E+01   7.3898401E+02   8.0414070E+01
         1         3        13   8.0974457E+01   3.4603928E+02   8.0874458E+01
         1         5        14   8.1187645E+01   1.2514137E+02   8.1087646E+01
         1         7        15   8.1495888E+01   4.2980762E+02   8.1395889E+01
         1         8        15   8.2411507E+01   5.3856494E+02   8.2311508E+01
         1         5        16   8.1549202E+01   8.2523914E+02   8.1449203E+01
         1         6        16   8.1951347E+01   6.0918060E+02   8.1851349E+01
         1         7        16   7.8837166E+01   1.3402871E+03   7.8737167E+01
         1         8        16   8.2353073E+01   1.3965356E+03   8.2253075E+01
         1        10        16   7.9668777E+01   7.5419250E+02   7.9568779E+01
         1        12        17   8.3198189E+01   5.2367493E+02   8.3098190E+01
         1        13        18   8.3231308E+01   1.1209203E+02   8.3131310E+01
         1        13        19   8.2606834E+01   1.0599292E+03   8.2506836E+01
         1        15        19   8.3953773E+01   7.6017798E+02   8.3853775E+01
         1        16        19   8.3158249E+01   3.9623505E+01   8.3058250E+01
         1        17        19   8.4117996E+01   4.2709821E+02   8.4017998E+01
         1        16        20   8.4129929E+01   1.2112686E+03   8.4029930E+01
         1        18        20   8.4562492E+01   4.1634604E+02   8.4462494E+01
         1        19        21   8.5019150E+01   3.4632727E+02   8.4919151E+01
         1        20        22   8.5055542E+01   4.6016428E+02   8.4955544E+01
         1        21        23   8.5303886E+01   3.2952765E+02   8.5203888E+01
         1        21        24   8.4737961E+01   9.2651697E+02   8.4637962E+01
         1        22        25   8.6209976E+01   5.2629266E+02   8.6109978E+01
         1        23        26   8.6516319E+01   5.5302338E+02   8.6416321E+01
         1        24        27   8.6678429E+01   7.1485028E+02   8.6578430E+01
         1        24        29   8.3721382E+01   1.3217576E+03   8.3621384E+01
         1        25        29   8.5340446E+01   6.4908533E+02   8.5240448E+01
         1        26        29   8.7115166E+01   6.6427484E+02   8.7015167E+01
         1        27        29   9.0328392E+01   3.3815005E+02   9.0228394E+01
         1        28        31   8.8016373E+01   1.2879045E+02   8.7916374E+01
         1        28        32   8.9049744E+01   7.6444250E+02   8.8949745E+01
         1        29        33   8.3131851E+01   5.7933191E+02   8.3031853E+01
         1        30        34   8.8439301E+01   3.4612241E+02   8.8339302E+01
         1        30        35   8.8236664E+01   6.3475610E+02   8.8136665E+01
         1        31        35   8.9539696E+01   1.7936975E+02   8.9439697E+01
         1        32        35   9.0015038E+01   2.1874418E+01   8.9915039E+01
         1        32        36   9.0218315E+01   7.9484637E+02   9.0118317E+01
         1        32        37   8.9410408E+01   7.5254987E+02   8.9310410E+01
         1        32        38   9.0722191E+01   9.6478595E+02   9.0622192E+01
         1        33        38   9.1150215E+01   4.2016309E+02   9.1050217E+01
         1        34        38   9.1111794E+01   5.2595758E+02   9.1011795E+01
         1        35        38   9.2982201E+01   8.0450171E+02   9.2882202E+01
         1        36        38   9.3518730E+01   1.0581939E+01   9.3418732E+01
         1        34        39   8.8920921E+01   1.1392318E+03   8.8820923E+01
         1        36        39   9.5240845E+01   5.0363339E+02   9.5140846E+01
         1        33        40   9.0522552E+01   6.4119751E+02   9.0422554E+01
         1        34        40   9.0771736E+01   2.7017871E+02   9.0671738E+01
         1        35        40   9.3887222E+01   1.1865491E+02   9.3787224E+01
         1        34        41   9.4195007E+01   8.2322433E+01   9.4095009E+01
         1        36        42   9.5129562E+01   1.7041290E+02   9.5029564E+01
         1        36        43   9.4218224E+01   3.6810898E+02   9.4118225E+01
         1        35        44   9.1487892E+01   6.0631433E+02   9.1387894E+01
         1        34        45   9.0175621E+01   6.9367847E+02   9.0075623E+01
         1        35        45   9.1997513E+01   7.4516284E+02   9.1897514E+01
         1        38        45   9.5839600E+01   4.5500812E+02   9.5739601E+01
         1        37        46   8.9985847E+01   9.7620502E+02   8.9885849E+01
         1        38        46   9.3471802E+01   6.4652786E+01   9.3371803E+01
         1        38        48   9.2493874E+01   6.8777637E+02   9.2393875E+01
         1        40        48   9.1655899E+01   4.6054062E+02   9.1555901E+01
         1        40        50   9.6106506E+01   4.1396964E+02   9.6006508E+01
         1        41        51   9.5257484E+01   3.1206702E+02   9.5157486E+01
         1        41        55   9.4997879E+01   5.0028091E+01   9.4897881E+01
         1        41        56   9.5110939E+01   3.2041867E+02   9.5010941E+01
