# DIS package for  MODFLOW-NWT, generated by Flopy.
         7        28        16         1         4         2
  0  0  0  0  0  0  0
CONSTANT    5.000000E+03                           #delr                          
CONSTANT    5.000000E+03                           #delc                          
INTERNAL               1  (16E15.6) -1 #model_top                     
   7.913333E+01   7.913333E+01   8.094712E+01   8.094712E+01   8.094712E+01   8.319156E+01   8.319156E+01   8.319156E+01   8.456417E+01   8.456417E+01   8.456417E+01   8.456417E+01   9.274567E+01   9.274567E+01   9.274567E+01   9.274567E+01
   8.029179E+01   8.029179E+01   8.099435E+01   8.099435E+01   8.319156E+01   8.319156E+01   8.319156E+01   8.456417E+01   8.456417E+01   8.456417E+01   8.456417E+01   9.274567E+01   9.274567E+01   9.274567E+01   9.274567E+01   9.274567E+01
   8.153525E+01   8.153525E+01   8.198306E+01   8.319156E+01   8.319156E+01   8.319156E+01   8.456417E+01   8.456417E+01   8.456417E+01   8.456417E+01   9.110828E+01   9.274567E+01   9.274567E+01   9.274567E+01   9.274567E+01   9.720574E+01
   8.244895E+01   8.244895E+01   8.327042E+01   8.393679E+01   8.393679E+01   8.456417E+01   8.456417E+01   8.456417E+01   8.456417E+01   9.110828E+01   9.274567E+01   9.274567E+01   9.274567E+01   9.274567E+01   9.720574E+01   9.720574E+01
   1.050681E+02   8.213000E+01   8.591524E+01   8.508509E+01   8.429865E+01   8.456417E+01   8.456417E+01   8.456417E+01   9.110828E+01   9.110828E+01   9.274567E+01   9.274567E+01   9.274567E+01   9.274567E+01   9.720574E+01   9.720574E+01
   1.050681E+02   8.261571E+01   8.457584E+01   8.559671E+01   8.790915E+01   8.741713E+01   8.741713E+01   9.110828E+01   9.110828E+01   9.274567E+01   9.274567E+01   9.274567E+01   9.274567E+01   9.720574E+01   9.720574E+01   9.720574E+01
   9.612075E+01   8.686221E+01   8.646508E+01   8.759708E+01   8.887937E+01   8.836385E+01   9.103635E+01   9.110828E+01   9.110828E+01   9.274567E+01   9.274567E+01   9.274567E+01   9.662467E+01   9.720574E+01   9.720574E+01   9.720574E+01
   9.948338E+01   8.831304E+01   8.888158E+01   9.062513E+01   9.087939E+01   9.103451E+01   9.342625E+01   9.422412E+01   9.560991E+01   9.274567E+01   9.274567E+01   9.662467E+01   9.720574E+01   9.720574E+01   9.720574E+01   9.720574E+01
   9.948338E+01   9.500515E+01   9.172855E+01   9.296374E+01   9.231401E+01   9.408229E+01   9.620777E+01   9.707826E+01   1.001359E+02   9.889989E+01   9.662467E+01   9.662467E+01   9.720574E+01   9.720574E+01   9.720574E+01   9.720574E+01
   9.312224E+01   9.312224E+01   9.422919E+01   9.581606E+01   9.525050E+01   9.893366E+01   1.007550E+02   1.011053E+02   1.022138E+02   9.871693E+01   9.900963E+01   9.882655E+01   9.720574E+01   9.720574E+01   9.720574E+01   9.720574E+01
   9.854790E+01   9.854790E+01   9.637235E+01   9.808081E+01   1.012790E+02   1.045386E+02   1.015569E+02   1.062981E+02   1.049772E+02   1.023807E+02   1.022483E+02   9.998340E+01   9.910472E+01   9.910472E+01   9.910472E+01   9.910472E+01
   9.780681E+01   9.780681E+01   1.010829E+02   1.016871E+02   1.030857E+02   1.060232E+02   1.087637E+02   1.071198E+02   1.052419E+02   1.062361E+02   1.069721E+02   1.033794E+02   1.011866E+02   1.011866E+02   1.011866E+02   1.011866E+02
   9.780681E+01   9.780681E+01   1.028155E+02   1.055957E+02   1.100527E+02   1.124581E+02   1.153578E+02   1.131921E+02   1.136714E+02   1.118587E+02   1.067922E+02   1.050391E+02   1.025913E+02   1.025913E+02   1.025913E+02   1.049858E+02
   1.073791E+02   1.073791E+02   1.073791E+02   1.107586E+02   1.129749E+02   1.152835E+02   1.188092E+02   1.160356E+02   1.163936E+02   1.160358E+02   1.207754E+02   1.064346E+02   1.020465E+02   1.020465E+02   1.049858E+02   1.049858E+02
   1.095318E+02   1.095318E+02   1.095318E+02   1.145860E+02   1.164634E+02   1.191105E+02   1.218671E+02   1.233976E+02   1.220511E+02   1.267971E+02   1.509102E+02   1.022614E+02   1.051767E+02   1.049858E+02   1.049858E+02   1.049858E+02
   1.088418E+02   1.088418E+02   1.088418E+02   1.221457E+02   1.191192E+02   1.209845E+02   1.299869E+02   1.241901E+02   1.253429E+02   1.397635E+02   1.613015E+02   1.075964E+02   1.061189E+02   1.054390E+02   1.054390E+02   1.086857E+02
   1.088418E+02   1.088418E+02   1.088418E+02   1.397484E+02   1.479310E+02   1.281142E+02   1.309059E+02   1.299781E+02   1.310037E+02   1.466457E+02   1.716348E+02   1.109977E+02   1.064995E+02   1.057233E+02   1.086857E+02   1.086857E+02
   1.795233E+02   1.795233E+02   1.795233E+02   1.857492E+02   1.488317E+02   1.563913E+02   1.337794E+02   1.313638E+02   1.410090E+02   1.627073E+02   2.354753E+02   1.095921E+02   1.091368E+02   1.180485E+02   1.210545E+02   1.210545E+02
   1.795233E+02   1.795233E+02   1.795233E+02   1.748803E+02   1.680079E+02   1.532650E+02   1.423838E+02   1.342580E+02   1.513875E+02   1.799999E+02   1.698802E+02   1.183816E+02   1.149655E+02   1.201333E+02   1.419770E+02   1.419770E+02
   1.798440E+02   1.798440E+02   1.798440E+02   1.590425E+02   1.515574E+02   1.446792E+02   1.497418E+02   1.494174E+02   1.700780E+02   1.829556E+02   1.500410E+02   1.262497E+02   1.184787E+02   1.333277E+02   1.642659E+02   1.642659E+02
   2.258207E+02   2.258207E+02   1.789827E+02   1.696808E+02   1.882137E+02   1.792996E+02   1.550161E+02   1.703257E+02   1.803162E+02   2.028002E+02   1.466250E+02   1.341962E+02   1.329737E+02   1.494551E+02   1.494551E+02   1.642659E+02
   2.258207E+02   2.258207E+02   1.924892E+02   1.861445E+02   2.142533E+02   2.085535E+02   1.701271E+02   1.827230E+02   2.109571E+02   2.032352E+02   1.942884E+02   1.638402E+02   1.675141E+02   1.895805E+02   1.895805E+02   1.895805E+02
   2.492975E+02   2.492975E+02   2.534982E+02   2.125833E+02   1.972627E+02   1.704124E+02   1.800121E+02   1.907024E+02   2.158337E+02   2.069656E+02   1.822406E+02   2.172020E+02   2.172020E+02   1.895805E+02   1.895805E+02   1.895805E+02
   2.695302E+02   2.695302E+02   2.521081E+02   2.098539E+02   1.992350E+02   1.689331E+02   1.845797E+02   1.890390E+02   2.297896E+02   2.482456E+02   2.472231E+02   2.472231E+02   2.172020E+02   1.895805E+02   1.895805E+02   1.895805E+02
   3.570260E+02   3.570260E+02   3.156174E+02   2.158688E+02   2.511270E+02   2.045701E+02   2.045701E+02   1.890390E+02   2.297896E+02   2.703978E+02   3.009534E+02   3.009534E+02   3.009534E+02   2.172020E+02   1.895805E+02   1.895805E+02
   3.570260E+02   3.570260E+02   3.292981E+02   3.292981E+02   2.581610E+02   2.610313E+02   2.610313E+02   2.610313E+02   2.703978E+02   2.703978E+02   3.009534E+02   3.009534E+02   3.009534E+02   3.009534E+02   3.009534E+02   1.895805E+02
   3.868230E+02   3.868230E+02   3.868230E+02   3.868230E+02   2.581610E+02   2.610313E+02   2.610313E+02   2.610313E+02   2.703978E+02   2.703978E+02   3.009534E+02   3.009534E+02   3.009534E+02   3.009534E+02   3.009534E+02   3.009534E+02
   3.868230E+02   3.868230E+02   3.868230E+02   3.868230E+02   2.581610E+02   2.610313E+02   2.610313E+02   2.610313E+02   2.703978E+02   2.703978E+02   3.009534E+02   3.009534E+02   3.009534E+02   3.009534E+02   3.009534E+02   3.009534E+02
INTERNAL               1  (16E15.6) -1 #botm layer 1                  
   7.120201E+01   7.120201E+01   7.773274E+01   7.773274E+01   7.773274E+01   7.572892E+01   7.572892E+01   7.572892E+01   4.992955E+01   4.992955E+01   4.992955E+01   4.992955E+01   8.547026E+01   8.547026E+01   8.547026E+01   8.547026E+01
   7.524622E+01   7.524622E+01   7.787595E+01   7.787595E+01   7.572892E+01   7.572892E+01   7.572892E+01   4.992955E+01   4.992955E+01   4.992955E+01   4.992955E+01   8.547026E+01   8.547026E+01   8.547026E+01   8.547026E+01   8.547026E+01
   5.759500E+01   5.759500E+01   7.500014E+01   7.572892E+01   7.572892E+01   7.572892E+01   4.992955E+01   4.992955E+01   4.992955E+01   4.992955E+01   8.646420E+01   8.547026E+01   8.547026E+01   8.547026E+01   8.547026E+01   7.101682E+01
   5.489687E+01   5.489687E+01   5.309537E+01   8.093679E+01   8.093679E+01   4.992955E+01   4.992955E+01   4.992955E+01   4.992955E+01   8.646420E+01   8.547026E+01   8.547026E+01   8.547026E+01   8.547026E+01   7.101682E+01   7.101682E+01
   9.329206E+01   7.682301E+01   5.412516E+01   7.973480E+01   8.129865E+01   4.992955E+01   4.992955E+01   4.992955E+01   8.646420E+01   8.646420E+01   8.547026E+01   8.547026E+01   8.547026E+01   8.547026E+01   7.101682E+01   7.101682E+01
   9.329206E+01   5.841224E+01   5.344668E+01   5.320791E+01   8.058883E+01   5.618910E+01   5.618910E+01   8.646420E+01   8.646420E+01   8.547026E+01   8.547026E+01   8.547026E+01   8.547026E+01   7.101682E+01   7.101682E+01   7.101682E+01
   9.307133E+01   7.268621E+01   6.055847E+01   6.111153E+01   6.304471E+01   6.278600E+01   6.127745E+01   8.646420E+01   8.646420E+01   8.547026E+01   8.547026E+01   8.547026E+01   6.502599E+01   7.101682E+01   7.101682E+01   7.101682E+01
   9.710295E+01   7.773299E+01   6.333921E+01   6.767848E+01   7.133214E+01   7.064399E+01   6.925173E+01   6.938499E+01   5.813464E+01   8.547026E+01   8.547026E+01   6.502599E+01   7.101682E+01   7.101682E+01   7.101682E+01   7.101682E+01
   9.710295E+01   9.203071E+01   6.736326E+01   7.046411E+01   7.526370E+01   7.683525E+01   7.930008E+01   7.008084E+01   7.510036E+01   7.218813E+01   6.502599E+01   6.502599E+01   7.101682E+01   7.101682E+01   7.101682E+01   7.101682E+01
   8.781941E+01   8.781941E+01   7.050535E+01   7.251142E+01   7.361019E+01   7.332012E+01   7.695537E+01   7.766801E+01   7.823961E+01   7.566898E+01   7.101466E+01   7.333682E+01   7.101682E+01   7.101682E+01   7.101682E+01   7.101682E+01
   9.021099E+01   9.021099E+01   9.132532E+01   7.489066E+01   7.856951E+01   7.844344E+01   7.445423E+01   7.727217E+01   8.179349E+01   7.987516E+01   7.895386E+01   7.641675E+01   7.608961E+01   7.608961E+01   7.608961E+01   7.608961E+01
   7.605032E+01   7.605032E+01   9.647525E+01   8.137129E+01   8.165368E+01   7.995793E+01   8.711478E+01   7.832645E+01   8.236420E+01   8.605900E+01   8.590483E+01   7.991411E+01   8.147922E+01   8.147922E+01   8.147922E+01   8.147922E+01
   7.605032E+01   7.605032E+01   9.981551E+01   8.978329E+01   9.244726E+01   9.186306E+01   9.689830E+01   9.353732E+01   8.958065E+01   9.220633E+01   8.954916E+01   8.962631E+01   8.518513E+01   8.518513E+01   8.518513E+01   7.932767E+01
   1.000882E+02   1.000882E+02   1.000882E+02   1.033690E+02   9.576172E+01   9.967879E+01   1.038589E+02   9.378379E+01   9.334608E+01   9.788241E+01   1.184421E+02   1.008760E+02   7.993347E+01   7.993347E+01   7.932767E+01   7.932767E+01
   1.044505E+02   1.044505E+02   1.044505E+02   1.103996E+02   1.099711E+02   1.099836E+02   1.057882E+02   1.028538E+02   1.028591E+02   1.243901E+02   1.366245E+02   8.948349E+01   8.036232E+01   7.932767E+01   7.932767E+01   7.932767E+01
   9.260421E+01   9.260421E+01   9.260421E+01   1.196024E+02   1.032618E+02   1.086547E+02   1.258317E+02   1.044453E+02   1.186462E+02   1.367999E+02   1.530607E+02   8.954066E+01   8.798488E+01   8.610120E+01   8.610120E+01   9.817466E+01
   9.260421E+01   9.260421E+01   9.260421E+01   1.254627E+02   1.336453E+02   1.253657E+02   1.185077E+02   1.126126E+02   1.241896E+02   1.323600E+02   1.646348E+02   1.050311E+02   1.017769E+02   1.013899E+02   9.817466E+01   9.817466E+01
   1.652376E+02   1.652376E+02   1.652376E+02   1.714635E+02   1.464984E+02   1.421055E+02   1.314836E+02   1.307573E+02   1.343714E+02   1.567073E+02   2.211896E+02   8.442181E+01   1.023250E+02   1.037627E+02   1.067688E+02   1.067688E+02
   1.652376E+02   1.652376E+02   1.652376E+02   1.605946E+02   1.537221E+02   1.389793E+02   1.379548E+02   1.270531E+02   1.490542E+02   1.657142E+02   1.607615E+02   1.060878E+02   1.095933E+02   1.178000E+02   1.276913E+02   1.276913E+02
   1.655583E+02   1.655583E+02   1.655583E+02   1.567092E+02   1.457834E+02   1.425852E+02   1.482418E+02   1.454413E+02   1.635209E+02   1.780151E+02   1.430410E+02   1.208877E+02   1.161454E+02   1.319277E+02   1.499802E+02   1.499802E+02
   2.115350E+02   2.115350E+02   1.759964E+02   1.553951E+02   1.739280E+02   1.650139E+02   1.535782E+02   1.689257E+02   1.660305E+02   1.885145E+02   1.442916E+02   1.287827E+02   1.318419E+02   1.351694E+02   1.351694E+02   1.499802E+02
   2.115350E+02   2.115350E+02   1.901559E+02   1.838112E+02   1.999675E+02   1.942677E+02   1.662824E+02   1.684373E+02   1.966714E+02   1.889495E+02   1.800027E+02   1.615069E+02   1.532284E+02   1.752948E+02   1.752948E+02   1.752948E+02
   2.350117E+02   2.350117E+02   2.392125E+02   1.982975E+02   1.829770E+02   1.687457E+02   1.775121E+02   1.890412E+02   2.015480E+02   1.926799E+02   1.752406E+02   2.029162E+02   2.029162E+02   1.752948E+02   1.752948E+02   1.752948E+02
   2.552445E+02   2.552445E+02   2.378224E+02   2.084406E+02   1.849492E+02   1.546474E+02   1.702940E+02   1.828461E+02   2.155039E+02   2.339599E+02   2.329374E+02   2.329374E+02   2.029162E+02   1.752948E+02   1.752948E+02   1.752948E+02
   3.427403E+02   3.427403E+02   3.013317E+02   2.135355E+02   2.368413E+02   1.902844E+02   1.902844E+02   1.828461E+02   2.155039E+02   2.561121E+02   2.866677E+02   2.866677E+02   2.866677E+02   2.029162E+02   1.752948E+02   1.752948E+02
   3.427403E+02   3.427403E+02   3.150124E+02   3.150124E+02   2.438753E+02   2.467456E+02   2.467456E+02   2.467456E+02   2.561121E+02   2.561121E+02   2.866677E+02   2.866677E+02   2.866677E+02   2.866677E+02   2.866677E+02   1.752948E+02
   3.725373E+02   3.725373E+02   3.725373E+02   3.725373E+02   2.438753E+02   2.467456E+02   2.467456E+02   2.467456E+02   2.561121E+02   2.561121E+02   2.866677E+02   2.866677E+02   2.866677E+02   2.866677E+02   2.866677E+02   2.866677E+02
   3.725373E+02   3.725373E+02   3.725373E+02   3.725373E+02   2.438753E+02   2.467456E+02   2.467456E+02   2.467456E+02   2.561121E+02   2.561121E+02   2.866677E+02   2.866677E+02   2.866677E+02   2.866677E+02   2.866677E+02   2.866677E+02
INTERNAL               1  (16E15.6) -1 #botm layer 2                  
   3.350898E+01   3.350898E+01   3.229182E+01   3.229182E+01   3.229182E+01   2.422404E+01   2.422404E+01   2.422404E+01   1.529493E+01   1.529493E+01   1.529493E+01   1.529493E+01   3.341945E+01   3.341945E+01   3.341945E+01   3.341945E+01
   2.642369E+01   2.642369E+01   3.441405E+01   3.441405E+01   2.422404E+01   2.422404E+01   2.422404E+01   1.529493E+01   1.529493E+01   1.529493E+01   1.529493E+01   3.341945E+01   3.341945E+01   3.341945E+01   3.341945E+01   3.341945E+01
   3.365476E+01   3.365476E+01   2.561572E+01   2.422404E+01   2.422404E+01   2.422404E+01   1.529493E+01   1.529493E+01   1.529493E+01   1.529493E+01   3.357423E+01   3.341945E+01   3.341945E+01   3.341945E+01   3.341945E+01   4.482788E+01
   2.734478E+01   2.734478E+01   2.292032E+01   1.676747E+01   1.676747E+01   1.529493E+01   1.529493E+01   1.529493E+01   1.529493E+01   3.357423E+01   3.341945E+01   3.341945E+01   3.341945E+01   3.341945E+01   4.482788E+01   4.482788E+01
   8.922366E+01   1.934066E+01   2.233509E+01   1.279546E+01   9.623322E+00   1.529493E+01   1.529493E+01   1.529493E+01   3.357423E+01   3.357423E+01   3.341945E+01   3.341945E+01   3.341945E+01   3.341945E+01   4.482788E+01   4.482788E+01
   8.922366E+01   3.420877E+01   2.231752E+01   2.081911E+01   1.744833E+01   2.496108E+01   2.496108E+01   3.357423E+01   3.357423E+01   3.341945E+01   3.341945E+01   3.341945E+01   3.341945E+01   4.482788E+01   4.482788E+01   4.482788E+01
   9.002191E+01   5.851022E+01   3.465186E+01   3.462599E+01   3.721004E+01   3.720814E+01   3.151855E+01   3.357423E+01   3.357423E+01   3.341945E+01   3.341945E+01   3.341945E+01   3.342732E+01   4.482788E+01   4.482788E+01   4.482788E+01
   9.472252E+01   6.715295E+01   3.779684E+01   4.473184E+01   5.178489E+01   5.025347E+01   4.507722E+01   4.454586E+01   2.065938E+01   3.341945E+01   3.341945E+01   3.342732E+01   4.482788E+01   4.482788E+01   4.482788E+01   4.482788E+01
   9.472252E+01   8.905626E+01   4.299797E+01   4.796448E+01   5.821339E+01   5.958821E+01   6.239238E+01   4.308342E+01   5.006479E+01   4.547638E+01   3.342732E+01   3.342732E+01   4.482788E+01   4.482788E+01   4.482788E+01   4.482788E+01
   8.251659E+01   8.251659E+01   4.678151E+01   4.920679E+01   5.196988E+01   4.770658E+01   5.315576E+01   5.423069E+01   5.426542E+01   5.262103E+01   4.301969E+01   4.784710E+01   4.482788E+01   4.482788E+01   4.482788E+01   4.482788E+01
   5.350324E+01   5.350324E+01   4.647011E+01   5.170052E+01   5.586004E+01   5.234829E+01   4.735157E+01   4.824626E+01   5.860975E+01   5.736962E+01   5.565946E+01   5.285009E+01   5.307450E+01   5.307450E+01   5.307450E+01   5.307450E+01
   5.429384E+01   5.429384E+01   5.560941E+01   6.105545E+01   6.022169E+01   5.389264E+01   6.546585E+01   4.953306E+01   5.948656E+01   6.588191E+01   6.483752E+01   5.644881E+01   6.177185E+01   6.177185E+01   6.177185E+01   6.177185E+01
   5.429384E+01   5.429384E+01   6.719183E+01   7.397085E+01   7.484179E+01   7.126804E+01   7.843883E+01   7.388258E+01   6.548992E+01   7.255392E+01   7.230611E+01   7.421355E+01   6.777896E+01   6.777896E+01   6.777896E+01   5.366958E+01
   7.480084E+01   7.480084E+01   7.480084E+01   7.393464E+01   7.854857E+01   8.407407E+01   8.890849E+01   7.153201E+01   7.029855E+01   7.972900E+01   1.161087E+02   9.531738E+01   5.782047E+01   5.782047E+01   5.366958E+01   5.366958E+01
   1.007500E+02   1.007500E+02   1.007500E+02   8.453769E+01   8.046696E+01   1.008567E+02   8.970929E+01   8.230988E+01   8.366719E+01   1.219832E+02   1.223388E+02   7.670560E+01   5.554790E+01   5.366958E+01   5.366958E+01   5.366958E+01
   7.636658E+01   7.636658E+01   7.636658E+01   1.170591E+02   1.025951E+02   9.632493E+01   1.216764E+02   8.470041E+01   9.173710E+01   1.338363E+02   1.513338E+02   7.148489E+01   6.985088E+01   6.676335E+01   6.676335E+01   8.766359E+01
   7.636658E+01   7.636658E+01   7.636658E+01   1.111770E+02   1.193596E+02   1.226171E+02   1.061095E+02   9.524718E+01   1.173755E+02   1.180743E+02   1.581572E+02   6.024093E+01   6.947946E+01   6.067741E+01   8.766359E+01   8.766359E+01
   1.509519E+02   1.509519E+02   1.509519E+02   1.571777E+02   1.441650E+02   1.278198E+02   1.291879E+02   1.024519E+02   1.277337E+02   1.560407E+02   2.069039E+02   5.925149E+01   9.551311E+01   8.947704E+01   9.248305E+01   9.248305E+01
   1.509519E+02   1.509519E+02   1.509519E+02   1.463089E+02   1.394364E+02   1.246936E+02   1.335259E+02   1.198482E+02   1.467209E+02   1.514285E+02   1.600518E+02   9.379405E+01   1.042211E+02   1.154667E+02   1.134056E+02   1.134056E+02
   1.512726E+02   1.512726E+02   1.512726E+02   1.543758E+02   1.400094E+02   1.404912E+02   1.472418E+02   1.414651E+02   1.628408E+02   1.766421E+02   1.388614E+02   1.155258E+02   1.138121E+02   1.305277E+02   1.356945E+02   1.356945E+02
   1.972493E+02   1.972493E+02   1.730101E+02   1.411094E+02   1.596423E+02   1.507282E+02   1.524735E+02   1.675257E+02   1.517448E+02   1.742288E+02   1.419583E+02   1.277251E+02   1.307101E+02   1.208837E+02   1.208837E+02   1.356945E+02
   1.972493E+02   1.972493E+02   1.878225E+02   1.814779E+02   1.856818E+02   1.799820E+02   1.624378E+02   1.541516E+02   1.823857E+02   1.746638E+02   1.657170E+02   1.591735E+02   1.389427E+02   1.610091E+02   1.610091E+02   1.610091E+02
   2.207260E+02   2.207260E+02   2.249268E+02   1.840118E+02   1.686913E+02   1.670791E+02   1.750121E+02   1.873799E+02   1.872623E+02   1.783942E+02   1.716635E+02   1.886305E+02   1.886305E+02   1.610091E+02   1.610091E+02   1.610091E+02
   2.409588E+02   2.409588E+02   2.235367E+02   2.070272E+02   1.706635E+02   1.403617E+02   1.560083E+02   1.797667E+02   2.012182E+02   2.196742E+02   2.186517E+02   2.186517E+02   1.886305E+02   1.610091E+02   1.610091E+02   1.610091E+02
   3.284545E+02   3.284545E+02   2.870460E+02   2.112021E+02   2.225556E+02   1.759987E+02   1.759987E+02   1.797667E+02   2.012182E+02   2.418264E+02   2.723820E+02   2.723820E+02   2.723820E+02   1.886305E+02   1.610091E+02   1.610091E+02
   3.284545E+02   3.284545E+02   3.007267E+02   3.007267E+02   2.295896E+02   2.324599E+02   2.324599E+02   2.324599E+02   2.418264E+02   2.418264E+02   2.723820E+02   2.723820E+02   2.723820E+02   2.723820E+02   2.723820E+02   1.610091E+02
   3.582516E+02   3.582516E+02   3.582516E+02   3.582516E+02   2.295896E+02   2.324599E+02   2.324599E+02   2.324599E+02   2.418264E+02   2.418264E+02   2.723820E+02   2.723820E+02   2.723820E+02   2.723820E+02   2.723820E+02   2.723820E+02
   3.582516E+02   3.582516E+02   3.582516E+02   3.582516E+02   2.295896E+02   2.324599E+02   2.324599E+02   2.324599E+02   2.418264E+02   2.418264E+02   2.723820E+02   2.723820E+02   2.723820E+02   2.723820E+02   2.723820E+02   2.723820E+02
INTERNAL               1  (16E15.6) -1 #botm layer 3                  
   1.466247E+01   1.466247E+01   9.571365E+00   9.571365E+00   9.571365E+00  -1.528407E+00  -1.528407E+00  -1.528407E+00  -1.933969E+01  -1.933969E+01  -1.933969E+01  -1.933969E+01   7.394037E+00   7.394037E+00   7.394037E+00   7.394037E+00
   2.012425E+00   2.012425E+00   1.268310E+01   1.268310E+01  -1.528407E+00  -1.528407E+00  -1.528407E+00  -1.933969E+01  -1.933969E+01  -1.933969E+01  -1.933969E+01   7.394037E+00   7.394037E+00   7.394037E+00   7.394037E+00   7.394037E+00
   9.714514E+00   9.714514E+00   9.235062E-01  -1.528407E+00  -1.528407E+00  -1.528407E+00  -1.933969E+01  -1.933969E+01  -1.933969E+01  -1.933969E+01   7.129245E+00   7.394037E+00   7.394037E+00   7.394037E+00   7.394037E+00   1.863895E+01
  -2.073052E-01  -2.073052E-01  -7.254729E+00  -1.531718E+01  -1.531718E+01  -1.933969E+01  -1.933969E+01  -1.933969E+01  -1.933969E+01   7.129245E+00   7.394037E+00   7.394037E+00   7.394037E+00   7.394037E+00   1.863895E+01   1.863895E+01
   8.718947E+01  -9.400521E+00  -9.454987E+00  -2.067422E+01  -2.621435E+01  -1.933969E+01  -1.933969E+01  -1.933969E+01   7.129245E+00   7.129245E+00   7.394037E+00   7.394037E+00   7.394037E+00   7.394037E+00   1.863895E+01   1.863895E+01
   8.718947E+01   1.000530E+01  -8.811645E+00  -1.156968E+01  -1.412192E+01  -6.266942E+00  -6.266942E+00   7.129245E+00   7.129245E+00   7.394037E+00   7.394037E+00   7.394037E+00   7.394037E+00   1.863895E+01   1.863895E+01   1.863895E+01
   8.697249E+01   4.433421E+01   8.745254E+00   8.140441E+00   1.137537E+01   1.163029E+01   1.759650E+00   7.129245E+00   7.129245E+00   7.394037E+00   7.394037E+00   7.394037E+00   1.828644E+00   1.863895E+01   1.863895E+01   1.863895E+01
   9.234209E+01   5.657290E+01   1.225447E+01   2.178520E+01   3.223764E+01   2.986295E+01   2.090270E+01   1.970673E+01  -1.681589E+01   7.394037E+00   7.394037E+00   1.828644E+00   1.863895E+01   1.863895E+01   1.863895E+01   1.863895E+01
   9.234209E+01   8.608182E+01   1.863268E+01   2.546485E+01   4.116309E+01   4.234116E+01   4.548468E+01   1.608600E+01   2.502920E+01   1.876463E+01   1.828644E+00   1.828644E+00   1.863895E+01   1.863895E+01   1.863895E+01   1.863895E+01
   7.721376E+01   7.721376E+01   2.305766E+01   2.590215E+01   3.032957E+01   2.209304E+01   2.935615E+01   3.079337E+01   3.029123E+01   2.957308E+01   1.502472E+01   2.235736E+01   1.863895E+01   1.863895E+01   1.863895E+01   1.863895E+01
   3.223442E+01   3.223442E+01   2.404251E+01   2.851038E+01   3.315056E+01   2.625313E+01   2.024891E+01   1.922035E+01   3.542600E+01   3.486408E+01   3.236507E+01   2.928344E+01   3.005939E+01   3.005939E+01   3.005939E+01   3.005939E+01
   3.253736E+01   3.253736E+01   3.517648E+01   4.073960E+01   3.878971E+01   2.782734E+01   4.381693E+01   2.073967E+01   3.660891E+01   4.570483E+01   4.377023E+01   3.298352E+01   4.206450E+01   4.206450E+01   4.206450E+01   4.206450E+01
   3.253736E+01   3.253736E+01   5.087999E+01   5.815841E+01   5.723632E+01   5.067302E+01   5.997935E+01   5.422784E+01   4.139919E+01   5.290151E+01   5.506304E+01   5.880079E+01   5.037279E+01   5.037279E+01   5.037279E+01   2.801150E+01
   6.215718E+01   6.215718E+01   6.215718E+01   5.921745E+01   6.133541E+01   6.846937E+01   7.395813E+01   4.928025E+01   4.725102E+01   6.157559E+01   1.137754E+02   8.975875E+01   3.570747E+01   3.570747E+01   2.801150E+01   2.801150E+01
   9.871764E+01   9.871764E+01   9.871764E+01   7.160674E+01   6.571491E+01   9.172971E+01   7.363037E+01   6.176601E+01   6.447525E+01   1.195762E+02   1.080531E+02   6.392770E+01   3.073347E+01   2.801150E+01   2.801150E+01   2.801150E+01
   6.012896E+01   6.012896E+01   6.012896E+01   1.145158E+02   1.022618E+02   8.399516E+01   1.175211E+02   6.495556E+01   7.828255E+01   1.308726E+02   1.504704E+02   5.342914E+01   5.171687E+01   4.742551E+01   4.742551E+01   7.715251E+01
   6.012896E+01   6.012896E+01   6.012896E+01   9.689130E+01   1.050739E+02   1.198686E+02   9.371137E+01   7.788171E+01   1.105615E+02   1.037886E+02   1.474145E+02   3.784583E+01   5.333074E+01   4.032119E+01   7.715251E+01   7.715251E+01
   1.366661E+02   1.366661E+02   1.366661E+02   1.428920E+02   1.418317E+02   1.135341E+02   1.268921E+02   8.829693E+01   1.210961E+02   1.557073E+02   1.926181E+02   3.408117E+01   8.870127E+01   7.519131E+01   7.819733E+01   7.819733E+01
   1.366661E+02   1.366661E+02   1.366661E+02   1.320232E+02   1.251507E+02   1.104079E+02   1.290970E+02   1.126434E+02   1.443875E+02   1.371428E+02   1.596969E+02   8.150029E+01   9.884897E+01   1.131333E+02   9.911989E+01   9.911989E+01
   1.369868E+02   1.369868E+02   1.369868E+02   1.520425E+02   1.342355E+02   1.383972E+02   1.246900E+02   1.374890E+02   1.625008E+02   1.759556E+02   1.366546E+02   1.101639E+02   1.114787E+02   1.291277E+02   1.214088E+02   1.214088E+02
   1.829636E+02   1.829636E+02   1.700238E+02   1.268236E+02   1.453566E+02   1.364424E+02   1.410278E+02   1.661257E+02   1.374590E+02   1.599431E+02   1.396250E+02   1.271962E+02   1.295783E+02   1.065979E+02   1.065979E+02   1.214088E+02
   1.829636E+02   1.829636E+02   1.854892E+02   1.791445E+02   1.713961E+02   1.656963E+02   1.324349E+02   1.398659E+02   1.681000E+02   1.603781E+02   1.514313E+02   1.568402E+02   1.246570E+02   1.467234E+02   1.467234E+02   1.467234E+02
   2.064403E+02   2.064403E+02   2.106411E+02   1.697261E+02   1.544056E+02   1.654124E+02   1.689248E+02   1.857186E+02   1.729766E+02   1.641085E+02   1.698749E+02   1.743448E+02   1.743448E+02   1.467234E+02   1.467234E+02   1.467234E+02
   2.266731E+02   2.266731E+02   2.092510E+02   2.056139E+02   1.563778E+02   1.260760E+02   1.417226E+02   1.780073E+02   1.869325E+02   2.053885E+02   2.043660E+02   2.043660E+02   1.743448E+02   1.467234E+02   1.467234E+02   1.467234E+02
   3.141688E+02   3.141688E+02   2.727603E+02   2.088688E+02   2.082699E+02   1.617130E+02   1.617130E+02   1.780073E+02   1.869325E+02   2.275407E+02   2.580963E+02   2.580963E+02   2.580963E+02   1.743448E+02   1.467234E+02   1.467234E+02
   3.141688E+02   3.141688E+02   2.864409E+02   2.864409E+02   2.153039E+02   2.181742E+02   2.181742E+02   2.181742E+02   2.275407E+02   2.275407E+02   2.580963E+02   2.580963E+02   2.580963E+02   2.580963E+02   2.580963E+02   1.467234E+02
   3.439659E+02   3.439659E+02   3.439659E+02   3.439659E+02   2.153039E+02   2.181742E+02   2.181742E+02   2.181742E+02   2.275407E+02   2.275407E+02   2.580963E+02   2.580963E+02   2.580963E+02   2.580963E+02   2.580963E+02   2.580963E+02
   3.439659E+02   3.439659E+02   3.439659E+02   3.439659E+02   2.153039E+02   2.181742E+02   2.181742E+02   2.181742E+02   2.275407E+02   2.275407E+02   2.580963E+02   2.580963E+02   2.580963E+02   2.580963E+02   2.580963E+02   2.580963E+02
INTERNAL               1  (16E15.6) -1 #botm layer 4                  
  -3.681782E+00  -3.681782E+00  -1.387435E+01  -1.387435E+01  -1.387435E+01  -3.193076E+01  -3.193076E+01  -3.193076E+01  -5.193310E+01  -5.193310E+01  -5.193310E+01  -5.193310E+01  -1.270846E+01  -1.270846E+01  -1.270846E+01  -1.270846E+01
  -1.641412E+01  -1.641412E+01  -2.097637E+01  -2.097637E+01  -3.193076E+01  -3.193076E+01  -3.193076E+01  -5.193310E+01  -5.193310E+01  -5.193310E+01  -5.193310E+01  -1.270846E+01  -1.270846E+01  -1.270846E+01  -1.270846E+01  -1.270846E+01
  -2.267650E+01  -2.267650E+01  -3.100865E+01  -3.193076E+01  -3.193076E+01  -3.193076E+01  -5.193310E+01  -5.193310E+01  -5.193310E+01  -5.193310E+01  -5.577690E+01  -1.270846E+01  -1.270846E+01  -1.270846E+01  -1.270846E+01  -9.870443E+00
  -2.704089E+01  -2.704089E+01  -3.345470E+01  -3.197915E+01  -3.197915E+01  -5.193310E+01  -5.193310E+01  -5.193310E+01  -5.193310E+01  -5.577690E+01  -1.270846E+01  -1.270846E+01  -1.270846E+01  -1.270846E+01  -9.870443E+00  -9.870443E+00
   8.515527E+01  -3.191539E+01  -2.988825E+01  -4.238072E+01  -5.085308E+01  -5.193310E+01  -5.193310E+01  -5.193310E+01  -5.577690E+01  -5.577690E+01  -1.270846E+01  -1.270846E+01  -1.270846E+01  -1.270846E+01  -9.870443E+00  -9.870443E+00
   8.515527E+01  -1.064599E+01  -2.617182E+01  -3.445893E+01  -3.973997E+01  -3.735286E+01  -3.735286E+01  -5.577690E+01  -5.577690E+01  -1.270846E+01  -1.270846E+01  -1.270846E+01  -1.270846E+01  -9.870443E+00  -9.870443E+00  -9.870443E+00
   7.937627E+01   2.987131E+01  -1.392367E+01  -1.494926E+01  -2.049853E+01  -1.932973E+01  -5.536354E+00  -5.577690E+01  -5.577690E+01  -1.270846E+01  -1.270846E+01  -1.270846E+01  -1.215998E+01  -9.870443E+00  -9.870443E+00  -9.870443E+00
   4.700574E+01   4.432920E+01  -1.528140E+00   3.945395E+00   6.012064E+00   5.788170E+00  -2.527878E+00  -1.330611E+01  -4.002920E+01  -1.270846E+01  -1.270846E+01  -1.215998E+01  -9.870443E+00  -9.870443E+00  -9.870443E+00  -9.870443E+00
   4.700574E+01   7.853188E+01  -8.720406E+00   8.285946E+00   1.021372E+01   9.894676E+00   9.774227E+00  -1.016945E+01  -2.947081E+00  -6.444611E+00  -1.215998E+01  -1.215998E+01  -9.870443E+00  -9.870443E+00  -9.870443E+00  -9.870443E+00