# Discretization file for MODFLOW, generated by Flopy.
         7       136        76         1         4         2
  0  0  0  0  0  0  0
CONSTANT    1.000000E+03                           #delr                          
CONSTANT    1.000000E+03                           #delc                          
INTERNAL               1  (76E15.6) -1 #model_top                     
   8.061012E+01   8.061012E+01   8.013398E+01   8.013398E+01   7.973215E+01   7.973215E+01   7.973215E+01   7.967702E+01   7.967702E+01   8.000047E+01   8.042661E+01   8.042661E+01   8.052407E+01   8.052407E+01   8.098446E+01   8.098446E+01   8.155920E+01   8.155920E+01   8.155920E+01   8.155920E+01   8.155920E+01   8.155920E+01   8.155920E+01   8.155920E+01   8.155920E+01   8.155920E+01   8.155920E+01   8.155920E+01   8.155920E+01   8.155920E+01   8.155920E+01   8.155920E+01   8.155920E+01   8.155920E+01   8.155920E+01   8.155920E+01   8.155920E+01   8.155920E+01   8.261684E+01   8.261684E+01   8.261684E+01   8.261684E+01   8.365852E+01   8.365852E+01   8.365852E+01   8.365852E+01   8.365852E+01   8.365852E+01   8.365852E+01   8.365852E+01   8.365852E+01   8.373138E+01   8.373138E+01   8.373138E+01   9.018562E+01   9.018562E+01   9.018562E+01   9.018562E+01   9.018562E+01   9.018562E+01   9.018562E+01   9.018562E+01   9.018562E+01   9.018562E+01   9.018562E+01   9.018562E+01   9.018562E+01   9.018562E+01   9.018562E+01   9.018562E+01   9.018562E+01   9.018562E+01   9.471950E+01   9.471950E+01   9.471950E+01   9.471950E+01
   8.061012E+01   8.061012E+01   8.061012E+01   8.013398E+01   8.013398E+01   7.973215E+01   7.973215E+01   7.911169E+01   7.967702E+01   8.000047E+01   8.000047E+01   8.052407E+01   8.052407E+01   8.098446E+01   8.098446E+01   8.155920E+01   8.155920E+01   8.155920E+01   8.155920E+01   8.155920E+01   8.155920E+01   8.155920E+01   8.155920E+01   8.155920E+01   8.155920E+01   8.155920E+01   8.155920E+01   8.155920E+01   8.155920E+01   8.155920E+01   8.155920E+01   8.155920E+01   8.155920E+01   8.155920E+01   8.155920E+01   8.155920E+01   8.261684E+01   8.261684E+01   8.261684E+01   8.261684E+01   8.261684E+01   8.365852E+01   8.365852E+01   8.365852E+01   8.365852E+01   8.365852E+01   8.365852E+01   8.365852E+01   8.365852E+01   8.365852E+01   8.373138E+01   8.373138E+01   8.373138E+01   9.018562E+01   9.018562E+01   9.018562E+01   9.018562E+01   9.018562E+01   9.018562E+01   9.018562E+01   9.018562E+01   9.018562E+01   9.018562E+01   9.018562E+01   9.018562E+01   9.018562E+01   9.018562E+01   9.018562E+01   9.018562E+01   9.018562E+01   9.018562E+01   9.471950E+01   9.471950E+01   9.471950E+01   9.471950E+01   9.471950E+01
   8.061012E+01   8.061012E+01   8.061012E+01   8.061012E+01   8.013398E+01   8.013398E+01   7.973215E+01   7.911169E+01   7.979264E+01   8.006591E+01   8.005288E+01   8.030038E+01   8.098446E+01   8.098446E+01   8.098446E+01   8.155920E+01   8.155920E+01   8.155920E+01   8.155920E+01   8.155920E+01   8.155920E+01   8.155920E+01   8.155920E+01   8.155920E+01   8.155920E+01   8.155920E+01   8.155920E+01   8.155920E+01   8.155920E+01   8.155920E+01   8.155920E+01   8.155920E+01   8.155920E+01   8.261684E+01   8.261684E+01   8.261684E+01   8.261684E+01   8.261684E+01   8.261684E+01   8.261684E+01   8.365852E+01   8.365852E+01   8.365852E+01   8.365852E+01   8.365852E+01   8.365852E+01   8.365852E+01   8.365852E+01   8.365852E+01   8.373138E+01   8.373138E+01   8.373138E+01   8.373138E+01   9.018562E+01   9.018562E+01   9.018562E+01   9.018562E+01   9.018562E+01   9.018562E+01   9.018562E+01   9.018562E+01   9.018562E+01   9.018562E+01   9.018562E+01   9.018562E+01   9.018562E+01   9.018562E+01   9.018562E+01   9.018562E+01   9.018562E+01   9.018562E+01   9.471950E+01   9.471950E+01   9.471950E+01   9.471950E+01   9.471950E+01
   8.061012E+01   8.061012E+01   8.061012E+01   8.061012E+01   8.061012E+01   8.013398E+01   7.869047E+01   8.015754E+01   8.031048E+01   8.008956E+01   7.951553E+01   7.951751E+01   8.028400E+01   8.028400E+01   8.119765E+01   8.155920E+01   8.155920E+01   8.155920E+01   8.155920E+01   8.155920E+01   8.155920E+01   8.155920E+01   8.155920E+01   8.155920E+01   8.155920E+01   8.155920E+01   8.155920E+01   8.155920E+01   8.155920E+01   8.155920E+01   8.261684E+01   8.261684E+01   8.261684E+01   8.261684E+01   8.261684E+01   8.261684E+01   8.261684E+01   8.261684E+01   8.261684E+01   8.365852E+01   8.365852E+01   8.365852E+01   8.365852E+01   8.365852E+01   8.365852E+01   8.365852E+01   8.365852E+01   8.365852E+01   8.373138E+01   8.373138E+01   8.373138E+01   8.373138E+01   9.018562E+01   9.018562E+01   9.018562E+01   9.018562E+01   9.018562E+01   9.018562E+01   9.018562E+01   9.018562E+01   9.018562E+01   9.018562E+01   9.018562E+01   9.018562E+01   9.018562E+01   9.018562E+01   9.018562E+01   9.018562E+01   9.018562E+01   9.018562E+01   9.471950E+01   9.471950E+01   9.471950E+01   9.471950E+01   9.471950E+01   9.471950E+01
   8.061012E+01   8.061012E+01   8.061012E+01   8.061012E+01   8.061012E+01   8.005381E+01   8.001806E+01   7.807642E+01   8.035551E+01   7.986492E+01   8.026896E+01   8.048811E+01   8.051965E+01   8.119765E+01   8.119765E+01   8.155920E+01   8.155920E+01   8.155920E+01   8.155920E+01   8.155920E+01   8.155920E+01   8.155920E+01   8.155920E+01   8.155920E+01   8.155920E+01   8.155920E+01   8.155920E+01   8.155920E+01   8.261684E+01   8.261684E+01   8.261684E+01   8.261684E+01   8.261684E+01   8.261684E+01   8.261684E+01   8.261684E+01   8.261684E+01   8.365852E+01   8.365852E+01   8.365852E+01   8.365852E+01   8.365852E+01   8.365852E+01   8.365852E+01   8.365852E+01   8.365852E+01   8.365852E+01   8.373138E+01   8.373138E+01   8.373138E+01   8.373138E+01   8.373138E+01   9.018562E+01   9.018562E+01   9.018562E+01   9.018562E+01   9.018562E+01   9.018562E+01   9.018562E+01   9.018562E+01   9.018562E+01   9.018562E+01   9.018562E+01   9.018562E+01   9.018562E+01   9.018562E+01   9.018562E+01   9.018562E+01   9.018562E+01   9.471950E+01   9.471950E+01   9.471950E+01   9.471950E+01   9.471950E+01   9.471950E+01   9.471950E+01
   8.165533E+01   8.165533E+01   8.087197E+01   8.087197E+01   8.087197E+01   8.015976E+01   8.039798E+01   8.021865E+01   8.042551E+01   7.973530E+01   8.023592E+01   8.022305E+01   8.010101E+01   8.059766E+01   8.131725E+01   8.196135E+01   8.196135E+01   8.196135E+01   8.196135E+01   8.196135E+01   8.196135E+01   8.196135E+01   8.196135E+01   8.196135E+01   8.196135E+01   8.261684E+01   8.261684E+01   8.261684E+01   8.261684E+01   8.261684E+01   8.261684E+01   8.261684E+01   8.261684E+01   8.261684E+01   8.261684E+01   8.261684E+01   8.365852E+01   8.365852E+01   8.365852E+01   8.365852E+01   8.365852E+01   8.365852E+01   8.365852E+01   8.365852E+01   8.365852E+01   8.365852E+01   8.373138E+01   8.373138E+01   8.373138E+01   8.373138E+01   8.373138E+01   9.018562E+01   9.018562E+01   9.018562E+01   9.018562E+01   9.018562E+01   9.018562E+01   9.018562E+01   9.018562E+01   9.018562E+01   9.018562E+01   9.018562E+01   9.018562E+01   9.018562E+01   9.018562E+01   9.018562E+01   9.018562E+01   9.018562E+01   9.018562E+01   9.471950E+01   9.471950E+01   9.471950E+01   9.471950E+01   9.471950E+01   9.471950E+01   9.471950E+01
   8.165533E+01   8.165533E+01   8.165533E+01   8.165533E+01   8.157471E+01   8.191243E+01   8.037539E+01   8.050980E+01   8.042999E+01   8.008041E+01   8.063280E+01   8.063210E+01   8.090820E+01   8.096668E+01   8.150589E+01   7.884717E+01   7.884717E+01   7.884717E+01   7.884717E+01   7.884717E+01   7.884717E+01   7.884717E+01   7.884717E+01   8.261684E+01   8.261684E+01   8.261684E+01   8.261684E+01   8.261684E+01   8.261684E+01   8.261684E+01   8.261684E+01   8.261684E+01   8.261684E+01   8.261684E+01   8.261684E+01   8.365852E+01   8.365852E+01   8.365852E+01   8.365852E+01   8.365852E+01   8.365852E+01   8.365852E+01   8.365852E+01   8.365852E+01   8.365852E+01   8.373138E+01   8.373138E+01   8.373138E+01   8.373138E+01   8.373138E+01   9.018562E+01   9.018562E+01   9.018562E+01   9.018562E+01   9.018562E+01   9.018562E+01   9.018562E+01   9.018562E+01   9.018562E+01   9.018562E+01   9.018562E+01   9.018562E+01   9.018562E+01   9.018562E+01   9.018562E+01   9.018562E+01   9.018562E+01   9.018562E+01   9.471950E+01   9.471950E+01   9.471950E+01   9.471950E+01   9.471950E+01   9.471950E+01   9.471950E+01   9.471950E+01
   8.165533E+01   8.165533E+01   8.165533E+01   8.165533E+01   8.211377E+01   8.167372E+01   7.992136E+01   8.026678E+01   8.082764E+01   8.069247E+01   8.102044E+01   8.087623E+01   8.097196E+01   8.140773E+01   8.242151E+01   8.236308E+01   8.236308E+01   8.236308E+01   8.236308E+01   8.236308E+01   8.236308E+01   8.261684E+01   8.261684E+01   8.261684E+01   8.261684E+01   8.261684E+01   8.261684E+01   8.261684E+01   8.261684E+01   8.261684E+01   8.261684E+01   8.261684E+01   8.261684E+01   8.261684E+01   8.365852E+01   8.365852E+01   8.365852E+01   8.365852E+01   8.365852E+01   8.365852E+01   8.365852E+01   8.365852E+01   8.365852E+01   8.365852E+01   8.373138E+01   8.373138E+01   8.373138E+01   8.373138E+01   8.373138E+01   8.373138E+01   9.018562E+01   9.018562E+01   9.018562E+01   9.018562E+01   9.018562E+01   9.018562E+01   9.018562E+01   9.018562E+01   9.018562E+01   9.018562E+01   9.018562E+01   9.018562E+01   9.018562E+01   9.018562E+01   9.018562E+01   9.018562E+01   9.018562E+01   9.018562E+01   9.471950E+01   9.471950E+01   9.471950E+01   9.471950E+01   9.471950E+01   9.471950E+01   9.471950E+01   9.471950E+01
   8.122603E+01   8.122603E+01   8.122603E+01   8.122603E+01   8.171689E+01   8.248043E+01   8.079471E+01   8.106759E+01   8.119989E+01   8.080076E+01   8.101286E+01   8.127753E+01   8.142542E+01   8.169172E+01   8.189164E+01   8.189164E+01   8.236308E+01   8.236308E+01   8.236308E+01   8.236308E+01   8.261684E+01   8.261684E+01   8.261684E+01   8.261684E+01   8.261684E+01   8.261684E+01   8.261684E+01   8.261684E+01   8.261684E+01   8.261684E+01   8.261684E+01   8.261684E+01   8.261684E+01   8.365852E+01   8.365852E+01   8.365852E+01   8.365852E+01   8.365852E+01   8.365852E+01   8.365852E+01   8.365852E+01   8.365852E+01   8.365852E+01   8.373138E+01   8.373138E+01   8.373138E+01   8.373138E+01   8.373138E+01   8.373138E+01   9.018562E+01   9.018562E+01   9.018562E+01   9.018562E+01   9.018562E+01   9.018562E+01   9.018562E+01   9.018562E+01   9.018562E+01   9.018562E+01   9.018562E+01   9.018562E+01   9.018562E+01   9.018562E+01   9.018562E+01   9.018562E+01   9.018562E+01   9.018562E+01   9.471950E+01   9.471950E+01   9.471950E+01   9.471950E+01   9.471950E+01   9.471950E+01   9.471950E+01   9.471950E+01   9.471950E+01
   8.065150E+01   8.065150E+01   8.065150E+01   8.065150E+01   8.135658E+01   8.215085E+01   8.381253E+01   8.047935E+01   8.129318E+01   8.133709E+01   8.138797E+01   8.158193E+01   8.154839E+01   8.147832E+01   8.189602E+01   7.967878E+01   7.967878E+01   7.967878E+01   8.320819E+01   8.261684E+01   8.261684E+01   8.261684E+01   8.261684E+01   8.261684E+01   8.261684E+01   8.261684E+01   8.261684E+01   8.261684E+01   8.261684E+01   8.261684E+01   8.261684E+01   8.261684E+01   8.365852E+01   8.365852E+01   8.365852E+01   8.365852E+01   8.365852E+01   8.365852E+01   8.365852E+01   8.365852E+01   8.365852E+01   8.365852E+01   8.373138E+01   8.373138E+01   8.373138E+01   8.373138E+01   8.373138E+01   8.373138E+01   9.018562E+01   9.018562E+01   9.018562E+01   9.018562E+01   9.018562E+01   9.018562E+01   9.018562E+01   9.018562E+01   9.018562E+01   9.018562E+01   9.018562E+01   9.018562E+01   9.018562E+01   9.018562E+01   9.018562E+01   9.018562E+01   9.018562E+01   9.018562E+01   9.018562E+01   9.471950E+01   9.471950E+01   9.471950E+01   9.471950E+01   9.471950E+01   9.471950E+01   9.471950E+01   9.471950E+01   9.471950E+01
   8.132735E+01   8.132735E+01   8.132735E+01   8.132735E+01   8.095095E+01   8.092055E+01   8.091176E+01   8.190224E+01   8.010918E+01   8.236181E+01   8.244915E+01   8.143233E+01   8.253333E+01   8.218675E+01   8.221635E+01   8.222476E+01   8.222476E+01   8.320819E+01   8.261684E+01   8.261684E+01   8.261684E+01   8.261684E+01   8.261684E+01   8.261684E+01   8.261684E+01   8.261684E+01   8.261684E+01   8.261684E+01   8.261684E+01   8.261684E+01   8.413993E+01   8.365852E+01   8.365852E+01   8.365852E+01   8.365852E+01   8.365852E+01   8.365852E+01   8.365852E+01   8.365852E+01   8.365852E+01   8.365852E+01   8.373138E+01   8.373138E+01   8.373138E+01   8.373138E+01   8.373138E+01   8.373138E+01   8.373138E+01   9.018562E+01   9.018562E+01   9.018562E+01   9.018562E+01   9.018562E+01   9.018562E+01   9.018562E+01   9.018562E+01   9.018562E+01   9.018562E+01   9.018562E+01   9.018562E+01   9.018562E+01   9.018562E+01   9.018562E+01   9.018562E+01   9.018562E+01   9.018562E+01   9.471950E+01   9.471950E+01   9.471950E+01   9.471950E+01   9.471950E+01   9.471950E+01   9.471950E+01   9.471950E+01   9.471950E+01   9.471950E+01
   8.120090E+01   8.120090E+01   8.120090E+01   8.120090E+01   8.159496E+01   8.109190E+01   8.091176E+01   8.213081E+01   8.303712E+01   8.142058E+01   8.120001E+01   8.233530E+01   8.194270E+01   8.028536E+01   8.213008E+01   8.271133E+01   8.320819E+01   8.320819E+01   8.261684E+01   8.261684E+01   8.261684E+01   8.261684E+01   8.261684E+01   8.261684E+01   8.261684E+01   8.261684E+01   8.261684E+01   8.413993E+01   8.413993E+01   8.413993E+01   8.474796E+01   8.365852E+01   8.365852E+01   8.365852E+01   8.365852E+01   8.365852E+01   8.365852E+01   8.365852E+01   8.365852E+01   8.365852E+01   8.373138E+01   8.373138E+01   8.373138E+01   8.373138E+01   8.373138E+01   8.373138E+01   8.373138E+01   8.824667E+01   9.018562E+01   9.018562E+01   9.018562E+01   9.018562E+01   9.018562E+01   9.018562E+01   9.018562E+01   9.018562E+01   9.018562E+01   9.018562E+01   9.018562E+01   9.018562E+01   9.018562E+01   9.018562E+01   9.018562E+01   9.018562E+01   9.018562E+01   9.471950E+01   9.471950E+01   9.471950E+01   9.471950E+01   9.471950E+01   9.471950E+01   9.471950E+01   9.471950E+01   9.471950E+01   9.471950E+01   9.471950E+01
   8.120090E+01   8.120090E+01   8.120090E+01   8.120090E+01   8.165805E+01   8.091176E+01   8.091176E+01   8.155634E+01   8.341135E+01   8.284927E+01   8.135265E+01   8.192103E+01   8.198243E+01   8.229037E+01   8.282244E+01   8.314775E+01   8.242232E+01   8.324131E+01   8.261684E+01   8.261684E+01   8.261684E+01   8.261684E+01   8.261684E+01   8.261684E+01   8.413993E+01   8.413993E+01   8.413993E+01   8.413993E+01   8.474796E+01   8.474796E+01   8.365852E+01   8.365852E+01   8.365852E+01   8.365852E+01   8.365852E+01   8.365852E+01   8.365852E+01   8.365852E+01   8.365852E+01   8.373138E+01   8.373138E+01   8.373138E+01   8.373138E+01   8.373138E+01   8.373138E+01   8.373138E+01   8.824667E+01   9.018562E+01   9.018562E+01   9.018562E+01   9.018562E+01   9.018562E+01   9.018562E+01   9.018562E+01   9.018562E+01   9.018562E+01   9.018562E+01   9.018562E+01   9.018562E+01   9.018562E+01   9.018562E+01   9.018562E+01   9.018562E+01   9.018562E+01   9.018562E+01   9.471950E+01   9.471950E+01   9.471950E+01   9.471950E+01   9.471950E+01   9.471950E+01   9.471950E+01   9.471950E+01   9.471950E+01   9.471950E+01   9.471950E+01
   8.120090E+01   8.120090E+01   8.120090E+01   8.120090E+01   8.165805E+01   8.205658E+01   8.216376E+01   8.100682E+01   8.178552E+01   8.292151E+01   8.228223E+01   8.254964E+01   8.385292E+01   8.230900E+01   8.234126E+01   8.338404E+01   8.298457E+01   8.249763E+01   8.249763E+01   8.261684E+01   8.261684E+01   8.413993E+01   8.413993E+01   8.413993E+01   8.413993E+01   8.413993E+01   8.413993E+01   8.474796E+01   8.474796E+01   8.474796E+01   8.365852E+01   8.365852E+01   8.365852E+01   8.365852E+01   8.365852E+01   8.365852E+01   8.365852E+01   8.365852E+01   8.373138E+01   8.373138E+01   8.373138E+01   8.373138E+01   8.373138E+01   8.373138E+01   8.373138E+01   8.824667E+01   8.824667E+01   9.018562E+01   9.018562E+01   9.018562E+01   9.018562E+01   9.018562E+01   9.018562E+01   9.018562E+01   9.018562E+01   9.018562E+01   9.018562E+01   9.018562E+01   9.018562E+01   9.018562E+01   9.018562E+01   9.018562E+01   9.018562E+01   9.018562E+01   9.471950E+01   9.471950E+01   9.471950E+01   9.471950E+01   9.471950E+01   9.471950E+01   9.471950E+01   9.471950E+01   9.471950E+01   9.471950E+01   9.471950E+01   9.471950E+01
   8.120090E+01   8.120090E+01   8.120090E+01   8.120090E+01   8.205658E+01   8.205658E+01   8.197624E+01   8.143087E+01   8.196961E+01   8.351497E+01   8.442680E+01   8.394697E+01   8.306773E+01   7.993055E+01   8.262830E+01   8.274739E+01   8.307465E+01   8.303817E+01   8.396378E+01   8.396378E+01   8.413993E+01   8.413993E+01   8.413993E+01   8.413993E+01   8.413993E+01   8.413993E+01   8.474796E+01   8.474796E+01   8.474796E+01   8.365852E+01   8.365852E+01   8.365852E+01   8.365852E+01   8.365852E+01   8.365852E+01   8.365852E+01   8.365852E+01   8.373138E+01   8.373138E+01   8.373138E+01   8.373138E+01   8.373138E+01   8.373138E+01   8.373138E+01   8.824667E+01   8.824667E+01   9.018562E+01   9.018562E+01   9.018562E+01   9.018562E+01   9.018562E+01   9.018562E+01   9.018562E+01   9.018562E+01   9.018562E+01   9.018562E+01   9.018562E+01   9.018562E+01   9.018562E+01   9.018562E+01   9.018562E+01   9.018562E+01   9.018562E+01   9.018562E+01   9.471950E+01   9.471950E+01   9.471950E+01   9.471950E+01   9.471950E+01   9.471950E+01   9.471950E+01   9.471950E+01   9.471950E+01   9.471950E+01   9.471950E+01   9.471950E+01
   8.120090E+01   8.120090E+01   8.120090E+01   8.205658E+01   8.220972E+01   8.220972E+01   8.220972E+01   8.149611E+01   8.298172E+01   8.220589E+01   8.272012E+01   8.380440E+01   8.366113E+01   8.010588E+01   8.290618E+01   8.281472E+01   8.324778E+01   8.344644E+01   8.316825E+01   8.413993E+01   8.413993E+01   8.413993E+01   8.413993E+01   8.413993E+01   8.413993E+01   8.474796E+01   8.474796E+01   8.474796E+01   8.474796E+01   8.365852E+01   8.365852E+01   8.365852E+01   8.365852E+01   8.365852E+01   8.365852E+01   8.365852E+01   8.373138E+01   8.373138E+01   8.373138E+01   8.373138E+01   8.373138E+01   8.373138E+01   8.373138E+01   8.824667E+01   8.824667E+01   8.824667E+01   9.018562E+01   9.018562E+01   9.018562E+01   9.018562E+01   9.018562E+01   9.018562E+01   9.018562E+01   9.018562E+01   9.018562E+01   9.018562E+01   9.018562E+01   9.018562E+01   9.018562E+01   9.018562E+01   9.018562E+01   9.018562E+01   9.018562E+01   9.471950E+01   9.471950E+01   9.471950E+01   9.471950E+01   9.471950E+01   9.471950E+01   9.471950E+01   9.471950E+01   9.471950E+01   9.471950E+01   9.471950E+01   9.471950E+01   9.471950E+01
   8.120090E+01   8.232700E+01   8.232700E+01   8.232700E+01   8.232700E+01   8.232700E+01   8.330235E+01   8.200801E+01   8.226035E+01   8.212088E+01   8.311218E+01   8.361581E+01   8.336340E+01   8.616411E+01   8.220486E+01   8.335504E+01   8.424191E+01   8.356108E+01   8.412800E+01   8.412800E+01   8.413993E+01   8.413993E+01   8.502915E+01   8.502915E+01   8.474796E+01   8.474796E+01   8.474796E+01   8.474796E+01   8.365852E+01   8.365852E+01   8.365852E+01   8.365852E+01   8.365852E+01   8.365852E+01   8.365852E+01   8.373138E+01   8.373138E+01   8.373138E+01   8.373138E+01   8.373138E+01   8.373138E+01   8.373138E+01   8.824667E+01   8.824667E+01   8.824667E+01   9.073219E+01   9.018562E+01   9.018562E+01   9.018562E+01   9.018562E+01   9.018562E+01   9.018562E+01   9.018562E+01   9.018562E+01   9.018562E+01   9.018562E+01   9.018562E+01   9.018562E+01   9.018562E+01   9.018562E+01   9.018562E+01   9.018562E+01   9.471950E+01   9.471950E+01   9.471950E+01   9.471950E+01   9.471950E+01   9.471950E+01   9.471950E+01   9.471950E+01   9.471950E+01   9.471950E+01   9.471950E+01   9.471950E+01   9.471950E+01   9.471950E+01
   8.232700E+01   8.232700E+01   8.232700E+01   8.232700E+01   8.232700E+01   8.232700E+01   8.284344E+01   8.240819E+01   8.305122E+01   8.463058E+01   8.407503E+01   8.361581E+01   8.327042E+01   8.392112E+01   8.610738E+01   8.364915E+01   8.400117E+01   8.395281E+01   8.348540E+01   8.457249E+01   8.457249E+01   8.502915E+01   8.502915E+01   8.506554E+01   8.474796E+01   8.474796E+01   8.474796E+01   8.474796E+01   8.365852E+01   8.365852E+01   8.365852E+01   8.365852E+01   8.365852E+01   8.365852E+01   8.373138E+01   8.373138E+01   8.373138E+01   8.373138E+01   8.373138E+01   8.373138E+01   8.373138E+01   8.824667E+01   8.824667E+01   8.824667E+01   8.824667E+01   9.018562E+01   9.018562E+01   9.018562E+01   9.018562E+01   9.018562E+01   9.018562E+01   9.018562E+01   9.018562E+01   9.018562E+01   9.018562E+01   9.018562E+01   9.018562E+01   9.018562E+01   9.018562E+01   9.018562E+01   9.018562E+01   9.018562E+01   9.471950E+01   9.471950E+01   9.471950E+01   9.471950E+01   9.471950E+01   9.471950E+01   9.471950E+01   9.471950E+01   9.471950E+01   9.471950E+01   9.471950E+01   9.471950E+01   9.471950E+01   9.471950E+01
   8.232700E+01   8.232700E+01   8.232700E+01   8.232700E+01   8.232700E+01   8.232700E+01   8.354308E+01   8.410484E+01   8.298566E+01   8.381918E+01   8.359564E+01   8.389931E+01   8.545804E+01   8.752823E+01   8.662881E+01   8.195844E+01   8.484115E+01   8.421803E+01   8.436163E+01   8.396902E+01   8.502915E+01   8.502915E+01   8.506554E+01   8.474796E+01   8.474796E+01   8.474796E+01   8.474796E+01   8.365852E+01   8.365852E+01   8.365852E+01   8.365852E+01   8.365852E+01   8.365852E+01   8.373138E+01   8.373138E+01   8.373138E+01   8.373138E+01   8.373138E+01   8.373138E+01   8.905975E+01   8.824667E+01   8.824667E+01   8.824667E+01   8.824667E+01   9.073219E+01   9.018562E+01   9.018562E+01   9.018562E+01   9.018562E+01   9.018562E+01   9.018562E+01   9.018562E+01   9.018562E+01   9.018562E+01   9.018562E+01   9.018562E+01   9.018562E+01   9.018562E+01   9.018562E+01   9.018562E+01   9.018562E+01   9.471950E+01   9.471950E+01   9.471950E+01   9.471950E+01   9.471950E+01   9.471950E+01   9.471950E+01   9.471950E+01   9.471950E+01   9.471950E+01   9.471950E+01   9.471950E+01   9.471950E+01   9.471950E+01   9.471950E+01
   8.401096E+01   8.241998E+01   8.241998E+01   8.241998E+01   8.241998E+01   8.241998E+01   8.304121E+01   8.305242E+01   8.296774E+01   8.448845E+01   8.383595E+01   8.400230E+01   8.447986E+01   8.354797E+01   8.350661E+01   8.423412E+01   8.524796E+01   8.351464E+01   8.416782E+01   8.431640E+01   8.405779E+01   8.506554E+01   8.506554E+01   8.474796E+01   8.474796E+01   8.474796E+01   8.621998E+01   8.365852E+01   8.365852E+01   8.365852E+01   8.365852E+01   8.365852E+01   8.373138E+01   8.373138E+01   8.373138E+01   8.373138E+01   8.373138E+01   8.373138E+01   8.905975E+01   8.824667E+01   8.824667E+01   8.824667E+01   8.824667E+01   9.073219E+01   9.073219E+01   9.018562E+01   9.018562E+01   9.018562E+01   9.018562E+01   9.018562E+01   9.018562E+01   9.018562E+01   9.018562E+01   9.018562E+01   9.018562E+01   9.018562E+01   9.018562E+01   9.018562E+01   9.018562E+01   9.018562E+01   9.018562E+01   9.471950E+01   9.471950E+01   9.471950E+01   9.471950E+01   9.471950E+01   9.471950E+01   9.471950E+01   9.471950E+01   9.471950E+01   9.471950E+01   9.471950E+01   9.471950E+01   9.471950E+01   9.471950E+01   9.471950E+01
   8.401096E+01   8.401096E+01   8.354369E+01   8.241998E+01   8.241998E+01   8.241998E+01   8.282101E+01   8.213000E+01   8.213000E+01   8.213000E+01   8.330179E+01   8.376582E+01   8.428765E+01   8.320723E+01   8.623885E+01   8.928732E+01   8.321606E+01   8.553042E+01   8.499797E+01   8.536693E+01   8.593840E+01   8.448726E+01   8.531389E+01   8.474796E+01   8.474796E+01   8.621998E+01   8.621998E+01   8.365852E+01   8.365852E+01   8.365852E+01   8.365852E+01   8.373138E+01   8.373138E+01   8.373138E+01   8.373138E+01   8.373138E+01   8.373138E+01   8.905975E+01   8.824667E+01   8.824667E+01   8.824667E+01   8.824667E+01   8.824667E+01   9.073219E+01   9.053255E+01   9.018562E+01   9.018562E+01   9.018562E+01   9.018562E+01   9.018562E+01   9.018562E+01   9.018562E+01   9.018562E+01   9.018562E+01   9.018562E+01   9.018562E+01   9.018562E+01   9.018562E+01   9.018562E+01   9.018562E+01   9.471950E+01   9.471950E+01   9.471950E+01   9.471950E+01   9.471950E+01   9.471950E+01   9.471950E+01   9.471950E+01   9.471950E+01   9.471950E+01   9.471950E+01   9.471950E+01   9.471950E+01   9.471950E+01   9.471950E+01   9.471950E+01
   8.393963E+01   8.401096E+01   8.401096E+01   8.354369E+01   8.354369E+01   8.387540E+01   8.213000E+01   8.213000E+01   8.213000E+01   8.213000E+01   8.369477E+01   8.657812E+01   8.520224E+01   8.316917E+01   8.270999E+01   8.598728E+01   8.467191E+01   8.554954E+01   8.591871E+01   8.759288E+01   8.535961E+01   8.477190E+01   8.458726E+01   8.537358E+01   8.621998E+01   8.621998E+01   8.652632E+01   8.365852E+01   8.365852E+01   8.365852E+01   8.373138E+01   8.373138E+01   8.373138E+01   8.373138E+01   8.373138E+01   8.905975E+01   8.905975E+01   8.905975E+01   8.824667E+01   8.824667E+01   8.824667E+01   8.824667E+01   9.073219E+01   9.073219E+01   9.018562E+01   9.018562E+01   9.018562E+01   9.018562E+01   9.018562E+01   9.018562E+01   9.018562E+01   9.018562E+01   9.018562E+01   9.018562E+01   9.018562E+01   9.018562E+01   9.018562E+01   9.018562E+01   9.018562E+01   9.018562E+01   9.471950E+01   9.471950E+01   9.471950E+01   9.471950E+01   9.471950E+01   9.471950E+01   9.471950E+01   9.471950E+01   9.471950E+01   9.471950E+01   9.471950E+01   9.471950E+01   9.471950E+01   9.471950E+01   9.471950E+01   9.471950E+01
   8.393963E+01   8.393963E+01   8.401096E+01   8.401096E+01   8.354369E+01   8.307439E+01   8.213000E+01   8.213000E+01   8.213000E+01   8.213000E+01   8.213000E+01   8.331462E+01   8.588290E+01   8.270999E+01   8.378529E+01   8.825368E+01   8.316444E+01   8.496973E+01   8.407663E+01   8.727621E+01   8.486345E+01   8.472827E+01   8.430721E+01   8.500842E+01   8.572388E+01   8.652632E+01   8.652632E+01   8.365852E+01   8.365852E+01   8.373138E+01   8.373138E+01   8.373138E+01   8.373138E+01   8.373138E+01   8.905975E+01   8.905975E+01   8.905975E+01   8.824667E+01   8.824667E+01   8.824667E+01   8.824667E+01   9.073219E+01   9.073219E+01   9.053255E+01   9.018562E+01   9.018562E+01   9.018562E+01   9.018562E+01   9.018562E+01   9.018562E+01   9.018562E+01   9.018562E+01   9.018562E+01   9.018562E+01   9.018562E+01   9.018562E+01   9.018562E+01   9.018562E+01   9.018562E+01   9.471950E+01   9.471950E+01   9.471950E+01   9.471950E+01   9.471950E+01   9.471950E+01   9.471950E+01   9.471950E+01   9.471950E+01   9.471950E+01   9.471950E+01   9.471950E+01   9.471950E+01   9.471950E+01   9.471950E+01   9.471950E+01   9.471950E+01
   8.393963E+01   8.393963E+01   8.393963E+01   8.401096E+01   8.396538E+01   8.394681E+01   8.345123E+01   8.213000E+01   8.213000E+01   8.213000E+01   8.213000E+01   8.400917E+01   8.379398E+01   8.297775E+01   8.437395E+01   8.413012E+01   8.404334E+01   8.563177E+01   8.753860E+01   8.387041E+01   8.581299E+01   8.583237E+01   8.524580E+01   8.536756E+01   8.578225E+01   8.606101E+01   8.668843E+01   8.668843E+01   8.373138E+01   8.373138E+01   8.373138E+01   8.373138E+01   8.373138E+01   8.905975E+01   8.905975E+01   8.905975E+01   8.824667E+01   8.824667E+01   8.824667E+01   8.824667E+01   8.824667E+01   9.073219E+01   9.073219E+01   9.053255E+01   9.018562E+01   9.018562E+01   9.018562E+01   9.018562E+01   9.018562E+01   9.018562E+01   9.018562E+01   9.018562E+01   9.018562E+01   9.018562E+01   9.018562E+01   9.018562E+01   9.018562E+01   9.018562E+01   9.471950E+01   9.471950E+01   9.471950E+01   9.471950E+01   9.471950E+01   9.471950E+01   9.471950E+01   9.471950E+01   9.471950E+01   9.471950E+01   9.471950E+01   9.471950E+01   9.471950E+01   9.471950E+01   9.471950E+01   9.471950E+01   9.471950E+01   9.471950E+01
   8.393963E+01   8.393963E+01   8.393963E+01   8.432547E+01   8.459113E+01   8.438795E+01   8.338895E+01   8.337793E+01   8.213000E+01   8.213000E+01   8.213000E+01   8.355872E+01   8.308435E+01   8.333543E+01   8.441278E+01   8.553105E+01   8.404334E+01   8.448300E+01   8.615309E+01   8.733723E+01   9.002548E+01   8.899448E+01   8.859259E+01   8.667645E+01   8.533318E+01   8.623932E+01   8.658812E+01   8.701170E+01   8.535045E+01   8.535045E+01   8.535045E+01   8.535045E+01   8.905975E+01   8.905975E+01   8.905975E+01   8.905975E+01   8.824667E+01   8.824667E+01   8.824667E+01   8.824667E+01   9.073219E+01   9.073219E+01   9.053255E+01   9.053255E+01   9.018562E+01   9.018562E+01   9.018562E+01   9.018562E+01   9.018562E+01   9.018562E+01   9.018562E+01   9.018562E+01   9.018562E+01   9.018562E+01   9.018562E+01   9.018562E+01   9.018562E+01   9.018562E+01   9.471950E+01   9.471950E+01   9.471950E+01   9.471950E+01   9.471950E+01   9.471950E+01   9.471950E+01   9.471950E+01   9.471950E+01   9.471950E+01   9.471950E+01   9.471950E+01   9.471950E+01   9.471950E+01   9.471950E+01   9.471950E+01   9.471950E+01   9.471950E+01