# GHB package for  MODFLOW-NWT, generated by Flopy.
        98        53
        98         0 # stress period 0
         1         1         2   7.9143333E+01   1.9828300E+02
         2         1         2   7.9143333E+01   9.4232568E+02
         3         1         2   7.9143333E+01   4.7116278E+02
         4         1         2   7.9143333E+01   4.5860635E+02
         5         1         2   7.9143333E+01   2.6153845E+02
         6         1         2   7.9143333E+01   3.3027212E+03
         7         1         2   7.9143333E+01   2.2784697E+03
         1         1         3   8.0957123E+01   8.0359459E+01
         2         1         3   8.0957123E+01   1.1360229E+03
         3         1         3   8.0957123E+01   5.6801147E+02
         4         1         3   8.0957123E+01   5.8614282E+02
         5         1         3   8.0957123E+01   1.4653568E+02
         6         1         3   8.0957123E+01   3.9913164E+03
         7         1         3   8.0957123E+01   2.5000000E+02
         1         2         3   8.1004349E+01   7.7959824E+01
         2         2         3   8.1004349E+01   1.0865476E+03
         3         2         3   8.1004349E+01   5.4327386E+02
         4         2         3   8.1004349E+01   8.4148663E+02
         5         2         3   8.1004349E+01   2.1037173E+02
         6         2         3   8.1004349E+01   3.3027927E+03
         7         2         3   8.1004349E+01   2.4324756E+03
         1         3         4   8.3201561E+01   1.8656598E+02
         2         3         4   8.3201561E+01   1.2876221E+03
         3         3         4   8.3201561E+01   6.4381110E+02
         4         3         4   8.3201561E+01   7.6005884E+02
         5         3         4   8.3201561E+01   1.9001469E+02
         6         3         4   8.3201561E+01   2.4349001E+03
         7         3         4   8.3201561E+01   2.2310703E+03
         1         4         4   8.3946793E+01   7.5000000E+01
         2         4         4   8.3946793E+01   1.6042330E+03
         3         4         4   8.3946793E+01   8.0211633E+02
         4         4         4   8.3946793E+01   4.1654929E+02
         5         4         4   8.3946793E+01   1.0413733E+02
         6         4         4   8.3946793E+01   1.5447445E+03
         7         4         4   8.3946793E+01   1.8868411E+03
         1         5         5   8.4308655E+01   7.5000000E+01
         2         5         5   8.4308655E+01   1.7918833E+03
         3         5         5   8.4308655E+01   8.9594183E+02
         4         5         5   8.4308655E+01   6.1596820E+02
         5         5         5   8.4308655E+01   1.5399199E+02
         6         5         5   8.4308655E+01   1.3671218E+03
         7         5         5   8.4308655E+01   2.0139663E+03
         1         5         6   8.4574173E+01   8.6586554E+02
         2         5         6   8.4574173E+01   8.6586554E+02
         3         5         6   8.4574173E+01   8.6586554E+02
         4         5         6   8.4574173E+01   8.1483514E+02
         5         5         6   8.4574173E+01   2.0370894E+02
         6         5         6   8.4574173E+01   1.2529271E+03
         7         5         6   8.4574173E+01   2.0028646E+03
         1         6         6   8.7427132E+01   7.8070068E+02
         2         6         6   8.7427132E+01   7.8070056E+02
         3         6         6   8.7427132E+01   7.8070050E+02
         4         6         6   8.7427132E+01   7.7714795E+02
         5         6         6   8.7427132E+01   1.9428693E+02
         6         6         6   8.7427132E+01   2.4905968E+01
         7         6         6   8.7427132E+01   1.4509535E+03
         1         7         7   9.1046356E+01   7.4397260E+02
         2         7         7   9.1046356E+01   7.4397247E+02
         3         7         7   9.1046356E+01   7.4397253E+02
         4         7         7   9.1046356E+01   1.8240010E+02
         5         7         7   9.1046356E+01   4.5600021E+01
         6         7         7   9.1046356E+01   9.7334595E+02
         7         7         7   9.1046356E+01   1.6222440E+02
         1         7         8   9.1118286E+01   1.1610222E+02
         2         7         8   9.1118286E+01   1.3222493E+03
         3         7         8   9.1118286E+01   6.6112451E+02
         4         7         8   9.1118286E+01   1.5726537E+03
         5         7         8   9.1118286E+01   3.9316348E+02
         6         7         8   9.1118286E+01   1.7557126E+02
         7         7         8   9.1118286E+01   1.7767113E+03
         1         8         8   9.4234123E+01   6.2097833E+02
         2         8         8   9.4234123E+01   6.2097827E+02
         3         8         8   9.4234123E+01   6.2097821E+02
         4         8         8   9.4234123E+01   8.2532092E+02
         5         8         8   9.4234123E+01   2.0633020E+02
         6         8         8   9.4234123E+01   9.9732263E+02
         7         8         8   9.4234123E+01   1.6510870E+03
         1         8         9   9.5619911E+01   9.3688165E+02
         2         8         9   9.5619911E+01   9.3688165E+02
         3         8         9   9.5619911E+01   9.3688171E+02
         4         8         9   9.5619911E+01   5.8033270E+02
         5         8         9   9.5619911E+01   1.4508324E+02
         6         8         9   9.5619911E+01   9.5782983E+02
         7         8         9   9.5619911E+01   1.8678009E+03
         1         8        10   9.2755669E+01   1.8188515E+02
         2         8        10   9.2755669E+01   1.3012704E+03
         3         8        10   9.2755669E+01   6.5063519E+02
         4         8        10   9.2755669E+01   5.0256238E+02
         5         8        10   9.2755669E+01   1.2564058E+02
         6         8        10   9.2755669E+01   2.3080596E+03
         7         8        10   9.2755669E+01   2.2428801E+03
         1         9        11   9.6634674E+01   7.8996698E+02
         2         9        11   9.6634674E+01   7.8996686E+02
         3         9        11   9.6634674E+01   7.8996686E+02
         4         9        11   9.6634674E+01   3.4971564E+02
         5         9        11   9.6634674E+01   8.7428902E+01
         6         9        11   9.6634674E+01   1.3413730E+03
         7         9        11   9.6634674E+01   4.1850732E+03
