# NWT package for  MODFLOW-NWT, generated by Flopy.
 1.000e-03 1.000e+04     10000 1.000e-05         2         1         1   COMPLEX
