# RIV package for  MODFLOW-NWT, generated by Flopy.
        41        53
        41         0 # stress period 0
         1        24         6   4.0620100E+05   1.6029352E+02   4.0620000E+05
         1        19         7   4.0620100E+05   1.4791437E+02   4.0620000E+05
         1        20         7   4.0620100E+05   3.3533025E+03   4.0620000E+05
         1        21         7   4.0620100E+05   3.3362869E+03   4.0620000E+05
         1        22         7   4.0620100E+05   2.8570972E+03   4.0620000E+05
         1        23         7   4.0620100E+05   3.0100896E+03   4.0620000E+05
         1        24         7   4.0620100E+05   3.4341357E+03   4.0620000E+05
         1        16         8   4.0620422E+05   1.5141083E+02   4.0620322E+05
         1        17         8   4.0620438E+05   4.6475933E+03   4.0620338E+05
         1        18         8   4.0620794E+05   5.1772769E+03   4.0620694E+05
         1        19         8   4.0621275E+05   3.8665503E+03   4.0621175E+05
         1        20         8   4.0621303E+05   1.1847525E+02   4.0621203E+05
         1        15         9   4.0621734E+05   3.0568931E+03   4.0621634E+05
         1        16         9   4.0621788E+05   5.2100947E+03   4.0621688E+05
         1        17         9   4.0621800E+05   5.6517548E+02   4.0621700E+05
         1        18         9   4.0621184E+05   2.7842215E+02   4.0621084E+05
         1         8        10   4.0620825E+05   8.7619849E+02   4.0620725E+05
         1         9        10   4.0620619E+05   3.6741638E+03   4.0620519E+05
         1        10        10   4.0620200E+05   1.4738700E+03   4.0620100E+05
         1        11        10   4.0621669E+05   1.1331259E+03   4.0621569E+05
         1        12        10   4.0623284E+05   4.8402847E+03   4.0623184E+05
         1        13        10   4.0623662E+05   4.3993413E+03   4.0623562E+05
         1        14        10   4.0624938E+05   3.5412710E+03   4.0624838E+05
         1        15        10   4.0625428E+05   1.7498655E+03   4.0625328E+05
         1         9        11   4.0626500E+05   1.4977008E+03   4.0626400E+05
         1        10        11   4.0626500E+05   3.2076934E+03   4.0626400E+05
         1        11        11   4.0626500E+05   3.8138950E+03   4.0626400E+05
         1         1         2   7.9123329E+01   6.2764191E+01   7.9023331E+01
         1         1         3   8.0937119E+01   7.7828081E+03   8.0837120E+01
         1         2         3   8.0984344E+01   9.6837256E+02   8.0884346E+01
         1         3         4   8.3181557E+01   7.0487300E+03   8.3081558E+01
         1         4         4   8.3926788E+01   3.2016106E+03   8.3826790E+01
         1         5         5   8.4288651E+01   2.8177415E+03   8.4188652E+01
         1         5         6   8.4554169E+01   8.0910264E+03   8.4454170E+01
         1         6         6   8.7407127E+01   1.5353868E+03   8.7307129E+01
         1         7         7   9.1026352E+01   2.0124419E+02   9.0926353E+01
         1         7         8   9.1098282E+01   9.6023145E+03   9.0998283E+01
         1         8         8   9.4214119E+01   5.1421533E+02   9.4114120E+01
         1         8         9   9.5599907E+01   2.2603513E+03   9.5499908E+01
         1         8        10   9.2735664E+01   6.9590493E+03   9.2635666E+01
         1         9        11   9.6614670E+01   1.8130052E+03   9.6514671E+01
