# WEL package for  MODFLOW-NWT, generated by Flopy.
        76        53
        76         0 # stress period 0
         4        15         6  -0.0000000E+00
         4        15         6  -0.0000000E+00
         6        20         6  -0.0000000E+00
         6        20         6  -0.0000000E+00
         6        20         6  -0.0000000E+00
         1        21         6  -0.0000000E+00
         4        11         7  -0.0000000E+00
         3        11         7  -0.0000000E+00
         3        21         7  -0.0000000E+00
         3        21         7  -0.0000000E+00
         4         9         8  -0.0000000E+00
         4        11         8  -0.0000000E+00
         6        11         8  -0.0000000E+00
         4        11         8  -0.0000000E+00
         4        12         8  -0.0000000E+00
         4        12         8  -0.0000000E+00
         4        12         8  -0.0000000E+00
         4        12         8  -0.0000000E+00
         4        13         8  -0.0000000E+00
         4        14         8  -0.0000000E+00
         4        14         8  -0.0000000E+00
         3        15         8  -0.0000000E+00
         4        15         8  -0.0000000E+00
         4        16         8  -0.0000000E+00
         4        17         8  -0.0000000E+00
         4        17         8  -0.0000000E+00
         4        18         8  -0.0000000E+00
         4        18         8  -0.0000000E+00
         4        19         8  -0.0000000E+00
         4        10         9  -0.0000000E+00
         4        10         9  -0.0000000E+00
         4        10         9  -0.0000000E+00
         5        11         9  -0.0000000E+00
         4        11         9  -0.0000000E+00
         4        11         9  -0.0000000E+00
         5        12         9  -0.0000000E+00
         6        12         9  -0.0000000E+00
         5        12         9  -0.0000000E+00
         6        12         9  -0.0000000E+00
         6        13         9  -0.0000000E+00
         7        13         9  -0.0000000E+00
         3        13         9  -0.0000000E+00
         4        13         9  -0.0000000E+00
         4        13         9  -0.0000000E+00
         3        13         9  -0.0000000E+00
         7        13         9  -0.0000000E+00
         6        13         9  -0.0000000E+00
         3        14         9  -0.0000000E+00
         3        14         9  -0.0000000E+00
         7        14         9  -0.0000000E+00
         7        14         9  -0.0000000E+00
         7        14         9  -0.0000000E+00
         7        14         9  -0.0000000E+00
         7        14         9  -0.0000000E+00
         3        14         9  -0.0000000E+00
         6        14         9  -0.0000000E+00
         3        14         9  -0.0000000E+00
         3        14         9  -0.0000000E+00
         6        14         9  -0.0000000E+00
         3        14         9  -0.0000000E+00
         7        14         9  -0.0000000E+00
         4        14         9  -0.0000000E+00
         3        14         9  -0.0000000E+00
         6        15         9  -0.0000000E+00
         4        15         9  -0.0000000E+00
         4        15         9  -0.0000000E+00
         6        15         9  -0.0000000E+00
         4        15         9  -0.0000000E+00
         6        15         9  -0.0000000E+00
         3         9        10  -0.0000000E+00
         3        10        10  -0.0000000E+00
         4        11        11  -0.0000000E+00
         4        11        11  -0.0000000E+00
         4        11        11  -0.0000000E+00
         4        11        11  -0.0000000E+00
         5        12        11  -0.0000000E+00
