# BAS6 package for  MODFLOW-NWT, generated by Flopy.
 FREE
INTERNAL               1    (16I10) -1 #ibound layer 1                
         0         1         1         0         0         0         0         0         0         0         0         0         0         0         0         0
         0         1         1         0         0         0         0         0         0         0         0         0         0         0         0         0
         0         3         1         1         0         0         0         0         0         0         0         0         0         0         0         0
         0         3         3         1         0         0         0         0         0         0         0         0         0         0         0         0
         0         1         3         1         1         3         0         0         0         0         0         0         0         0         0         0
         1         3         3         3         1         3         0         0         0         0         0         0         0         0         0         0
         3         3         3         3         3         3         3         1         0         0         0         0         0         0         0         0
         3         3         3         3         3         3         3         3         3         1         0         0         0         0         0         0
         0         3         3         3         3         3         3         3         3         3         3         0         0         0         0         0
         0         3         3         3         3         3         3         3         3         3         3         3         3         0         0         0
         0         1         1         3         3         3         3         3         3         3         3         3         3         0         0         0
         0         3         1         3         3         3         3         3         3         3         3         3         3         0         0         0
         0         0         1         3         3         3         3         3         3         3         3         3         3         0         0         0
         0         0         1         1         3         3         3         3         3         3         3         3         3         0         0         0
         0         0         1         1         1         3         3         3         3         3         7         3         3         3         0         0
         0         0         3         3         1         3         3         3         1         3         1         3         3         3         0         0
         0         0         0         7         7         3         3         3         3         7         1         1         1         1         3         0
         0         0         0         7         3         7         3         1         3         1         7         3         3         7         7         0
         0         0         7         7         7         7         3         3         3         7         1         3         3         3         7         0
         0         0         7         3         3         3         1         3         1         1         1         3         3         5         7         0
         0         0         3         7         7         7         1         5         7         7         3         1         3         7         0         0
         0         7         3         3         7         7         2         7         7         7         7         3         7         7         0         0
         0         7         7         7         7         3         2         5         7         7         1         7         0         0         0         0
         0         7         7         6         7         7         7         1         7         7         7         0         0         0         0         0
         0         7         7         3         7         7         0         0         0         7         7         0         0         0         0         0
         0         0         7         0         7         7         0         0         0         0         0         0         0         0         0         0
         0         0         7         0         0         0         0         0         0         0         0         0         0         0         0         0
         0         0         0         0         0         0         0         0         0         0         0         0         0         0         0         0
INTERNAL               1    (16I10) -1 #ibound layer 2                
         0         3         3         0         0         0         0         0         0         0         0         0         0         0         0         0
         0         3         3         0         0         0         0         0         0         0         0         0         0         0         0         0
         0         3         3         3         0         0         0         0         0         0         0         0         0         0         0         0
         0         3         3         3         0         0         0         0         0         0         0         0         0         0         0         0
         0         3         3         3         3         3         0         0         0         0         0         0         0         0         0         0
         7         3         3         3         3         3         0         0         0         0         0         0         0         0         0         0
         3         3         3         3         3         3         3         3         0         0         0         0         0         0         0         0
         3         3         3         3         3         3         3         3         3         3         0         0         0         0         0         0
         0         3         3         3         3         3         3         3         3         3         3         0         0         0         0         0
         0         3         3         3         3         3         3         3         3         3         3         3         3         0         0         0
         0         3         3         3         3         3         3         3         3         3         3         3         3         0         0         0
         0         3         3         3         3         3         3         3         3         3         3         3         3         0         0         0
         0         0         3         3         3         3         3         3         3         3         3         3         3         0         0         0
         0         0         3         3         3         3         3         3         3         3         3         3         3         0         0         0
         0         0         3         3         3         3         3         3         3         3         7         3         3         3         0         0
         0         0         3         3         3         3         3         3         3         3         3         3         3         3         0         0
         0         0         0         7         7         3         3         3         3         7         7         3         3         3         3         0
         0         0         0         7         3         7         3         3         3         3         7         3         3         7         7         0
         0         0         7         7         7         7         3         3         3         7         3         3         3         3         7         0
         0         0         7         3         3         3         2         3         3         3         7         3         3         5         7         0
         0         0         3         7         7         7         2         5         7         7         3         3         3         7         0         0
         0         7         3         3         7         7         2         7         7         7         7         3         7         7         0         0
         0         7         7         7         7         3         2         5         7         7         7         7         0         0         0         0
         0         7         7         6         7         7         7         3         7         7         7         0         0         0         0         0
         0         7         7         3         7         7         0         0         0         7         7         0         0         0         0         0
         0         0         7         0         7         7         0         0         0         0         0         0         0         0         0         0
         0         0         7         0         0         0         0         0         0         0         0         0         0         0         0         0
         0         0         0         0         0         0         0         0         0         0         0         0         0         0         0         0
INTERNAL               1    (16I10) -1 #ibound layer 3                
         0         3         3         0         0         0         0         0         0         0         0         0         0         0         0         0
         0         3         3         0         0         0         0         0         0         0         0         0         0         0         0         0
         0         3         3         3         0         0         0         0         0         0         0         0         0         0         0         0
         0         3         3         3         0         0         0         0         0         0         0         0         0         0         0         0
         0         3         3         3         3         3         0         0         0         0         0         0         0         0         0         0
         7         3         3         3         3         3         0         0         0         0         0         0         0         0         0         0
         3         3         3         3         3         3         3         3         0         0         0         0         0         0         0         0
         3         3         3         3         3         3         3         3         3         3         0         0         0         0         0         0
         0         3         3         3         3         3         3         3         3         3         3         0         0         0         0         0
         0         3         3         3         3         3         3         3         3         3         3         3         3         0         0         0
         0         3         3         3         3         3         3         3         3         3         3         3         3         0         0         0
         0         3         3         3         3         3         3         3         3         3         3         3         3         0         0         0
         0         0         3         3         3         3         3         3         3         3         3         3         3         0         0         0
         0         0         3         3         3         3         3         3         3         3         3         3         3         0         0         0
         0         0         3         3         3         3         3         3         3         3         7         3         3         3         0         0
         0         0         3         3         3         3         3         3         3         3         3         3         3         3         0         0
         0         0         0         7         7         3         3         3         3         7         7         3         3         3         3         0
         0         0         0         7         3         7         3         3         3         3         7         3         3         7         7         0
         0         0         7         7         7         7         3         3         3         7         3         3         3         3         7         0
         0         0         7         3         3         3         3         3         3         3         7         3         3         5         7         0
         0         0         3         7         7         7         3         5         7         7         3         3         3         7         0         0
         0         7         3         3         7         7         3         7         7         7         7         3         7         7         0         0
         0         7         7         7         7         3         6         5         7         7         7         7         0         0         0         0
         0         7         7         6         7         7         7         3         7         7         7         0         0         0         0         0
         0         7         7         3         7         7         0         0         0         7         7         0         0         0         0         0
         0         0         7         0         7         7         0         0         0         0         0         0         0         0         0         0
         0         0         7         0         0         0         0         0         0         0         0         0         0         0         0         0
         0         0         0         0         0         0         0         0         0         0         0         0         0         0         0         0
INTERNAL               1    (16I10) -1 #ibound layer 4                
         0         4         5         0         0         0         0         0         0         0         0         0         0         0         0         0
         0         5         5         0         0         0         0         0         0         0         0         0         0         0         0         0
         0         5         5         5         0         0         0         0         0         0         0         0         0         0         0         0
         0         5         5         5         0         0         0         0         0         0         0         0         0         0         0         0
         0         5         5         5         5         5         0         0         0         0         0         0         0         0         0         0
         7         7         5         5         5         5         0         0         0         0         0         0         0         0         0         0
         7         7         5         5         5         5         5         5         0         0         0         0         0         0         0         0
         7         7         5         5         5         5         5         5         5         5         0         0         0         0         0         0
         0         7         5         5         5         5         5         5         5         5         5         0         0         0         0         0
         0         7         5         5         5         5         5         5         5         5         5         5         5         0         0         0
         0         5         5         5         5         5         5         5         5         5         5         5         5         0         0         0
         0         5         5         5         5         5         7         5         5         5         5         5         5         0         0         0
         0         0         5         5         5         5         7         5         5         5         5         5         5         0         0         0
         0         0         5         5         5         5         7         5         5         5         7         7         5         0         0         0
         0         0         7         5         5         7         7         5         5         7         7         5         5         5         0         0
         0         0         6         7         7         5         7         5         5         7         7         5         5         5         0         0
         0         0         0         7         7         7         5         5         7         7         7         5         7         6         7         0
         0         0         0         7         7         7         5         5         7         7         7         5         7         7         7         0
         0         0         7         7         7         7         7         5         7         7         7         5         7         7         7         0
         0         0         7         7         5         5         7         7         7         7         7         5         7         5         7         0
         0         0         7         7         7         7         7         5         7         7         7         7         5         7         0         0
         0         7         7         7         7         7         5         7         7         7         7         7         7         7         0         0
         0         7         7         7         7         6         6         5         7         7         7         7         0         0         0         0
         0         7         7         6         7         7         7         7         7         7         7         0         0         0         0         0
         0         7         7         7         7         7         0         0         0         7         7         0         0         0         0         0
         0         0         7         0         7         7         0         0         0         0         0         0         0         0         0         0
         0         0         7         0         0         0         0         0         0         0         0         0         0         0         0         0
         0         0         0         0         0         0         0         0         0         0         0         0         0         0         0         0
INTERNAL               1    (16I10) -1 #ibound layer 5                
         0         5         5         0         0         0         0         0         0         0         0         0         0         0         0         0
         0         5         5         0         0         0         0         0         0         0         0         0         0         0         0         0
         0         5         5         5         0         0         0         0         0         0         0         0         0         0         0         0
         0         5         5         5         0         0         0         0         0         0         0         0         0         0         0         0
         0         5         5         5         5         5         0         0         0         0         0         0         0         0         0         0
         7         7         5         5         5         5         0         0         0         0         0         0         0         0         0         0
         7         7         5         5         5         5         5         5         0         0         0         0         0         0         0         0
         7         7         5         5         5         5         5         5         5         5         0         0         0         0         0         0
         0         7         5         5         5         5         5         5         5         5         5         0         0         0         0         0
         0         7         5         5         5         5         5         5         5         5         5         5         5         0         0         0
         0         5         5         5         5         5         5         5         5         5         5         5         5         0         0         0
         0         5         5         5         5         5         7         5         5         5         5         5         5         0         0         0
         0         0         5         5         5         5         7         5         5         5         5         5         5         0         0         0
         0         0         5         5         5         5         7         5         5         5         7         7         5         0         0         0
         0         0         7         5         5         7         7         5         5         7         7         5         5         5         0         0
         0         0         6         7         7         5         7         5         5         7         7         5         5         5         0         0
         0         0         0         7         7         7         5         5         7         7         7         5         7         6         7         0
         0         0         0         7         7         7         5         5         7         7         7         5         7         7         7         0
         0         0         7         7         7         7         7         5         7         7         7         5         7         7         7         0
         0         0         7         7         5         5         7         7         7         7         7         5         7         5         7         0
         0         0         7         7         7         7         7         5         7         7         7         7         5         7         0         0
         0         7         7         7         7         7         5         7         7         7         7         7         7         7         0         0
         0         7         7         7         7         6         6         5         7         7         7         7         0         0         0         0
         0         7         7         6         7         7         7         7         7         7         7         0         0         0         0         0
         0         7         7         7         7         7         0         0         0         7         7         0         0         0         0         0
         0         0         7         0         7         7         0         0         0         0         0         0         0         0         0         0
         0         0         7         0         0         0         0         0         0         0         0         0         0         0         0         0
         0         0         0         0         0         0         0         0         0         0         0         0         0         0         0         0
INTERNAL               1    (16I10) -1 #ibound layer 6                
         0         6         6         0         0         0         0         0         0         0         0         0         0         0         0         0
         0         6         6         0         0         0         0         0         0         0         0         0         0         0         0         0
         0         6         6         6         0         0         0         0         0         0         0         0         0         0         0         0
         0         6         6         6         0         0         0         0         0         0         0         0         0         0         0         0
         0         6         6         6         6         6         0         0         0         0         0         0         0         0         0         0
         7         7         6         6         6         6         0         0         0         0         0         0         0         0         0         0
         7         7         6         6         6         6         7         6         0         0         0         0         0         0         0         0
         7         7         6         6         6         6         6         6         6         6         0         0         0         0         0         0
         0         7         6         6         6         6         6         6         6         6         6         0         0         0         0         0
         0         7         6         6         6         6         6         6         6         6         6         6         6         0         0         0
         0         7         6         6         6         6         6         6         6         6         6         6         6         0         0         0
         0         6         6         6         6         6         7         6         6         6         6         6         6         0         0         0
         0         0         6         6         6         7         7         6         6         7         7         7         6         0         0         0
         0         0         6         6         6         6         7         7         6         7         7         7         6         0         0         0
         0         0         7         7         7         7         7         6         7         7         7         7         6         6         0         0
         0         0         6         7         7         7         7         6         7         7         7         7         6         6         0         0
         0         0         0         7         7         7         7         6         7         7         7         7         7         6         7         0
         0         0         0         7         7         7         7         6         7         7         7         7         7         7         7         0
         0         0         7         7         7         7         7         6         7         7         7         7         7         7         7         0
         0         0         7         7         7         7         7         7         7         7         7         7         7         7         7         0
         0         0         7         7         7         7         7         7         7         7         7         7         7         7         0         0
         0         7         7         7         7         7         7         7         7         7         7         7         7         7         0         0
         0         7         7         7         7         6         6         7         7         7         7         7         0         0         0         0
         0         7         7         6         7         7         7         7         7         7         7         0         0         0         0         0
         0         7         7         7         7         7         0         0         0         7         7         0         0         0         0         0
         0         0         7         0         7         7         0         0         0         0         0         0         0         0         0         0
         0         0         7         0         0         0         0         0         0         0         0         0         0         0         0         0
         0         0         0         0         0         0         0         0         0         0         0         0         0         0         0         0
INTERNAL               1    (16I10) -1 #ibound layer 7                
         0         7         7         0         0         0         0         0         0         0         0         0         0         0         0         0
         0         7         7         0         0         0         0         0         0         0         0         0         0         0         0         0
         0         7         7         7         0         0         0         0         0         0         0         0         0         0         0         0
         0         7         7         7         0         0         0         0         0         0         0         0         0         0         0         0
         0         7         7         7         7         7         0         0         0         0         0         0         0         0         0         0
         7         7         7         7         7         7         0         0         0         0         0         0         0         0         0         0
         7         7         7         7         7         7         7         7         0         0         0         0         0         0         0         0
         7         7         7         7         7         7         7         7         7         7         0         0         0         0         0         0
         0         7         7         7         7         7         7         7         7         7         7         0         0         0         0         0
         0         7         7         7         7         7         7         7         7         7         7         7         7         0         0         0
         0         7         7         7         7         7         7         7         7         7         7         7         7         0         0         0
         0         7         7         7         7         7         7         7         7         7         7         7         7         0         0         0
         0         0         7         7         7         7         7         7         7         7         7         7         7         0         0         0
         0         0         7         7         7         7         7         7         7         7         7         7         7         0         0         0